*Heading
** Job name: asdasdasd Model name: Model-1
** Generated by: Abaqus/CAE 2024
*Preprint, echo=NO, model=NO, history=NO, contact=NO
**
** PARTS
**
*Part, name=Part-1
*Node
      1, 0.000157138988, 0.000235175117, 0.000282842724
      2, 0.00314277993, 0.00470350264, 0.000282842724
      3, 0.00612842059, 0.00917182956, 0.000282842724
      4, 0.000157138988, 0.000235175117, 0.00565685425
      5, 0.00314277993, 0.00470350264, 0.00565685425
      6, 0.00612842059, 0.00917182956, 0.00565685425
      7, 0.000157138988, 0.000235175117, 0.0110308658
      8, 0.00314277993, 0.00470350264, 0.0110308658
      9, 0.00612842059, 0.00917182956, 0.0110308658
*Element, type=S4
1, 1, 2, 5, 4
2, 2, 3, 6, 5
3, 4, 5, 8, 7
4, 5, 6, 9, 8
*Elset, elset=Set-1, generate
 1,  4,  1
** Section: Section-1
*Shell Section, elset=Set-1, material=Material-1
0.001, 5
*End Part
**  
*Part, name=Part-2
*Node
      1, 0.00652073463, 0.00924986601, 0.000282842724
      2, 0.0109890625, 0.00626422511, 0.000282842724
      3, 0.0154573889, 0.00327858422, 0.000282842724
      4, 0.00652073463, 0.00924986601, 0.00565685425
      5, 0.0109890625, 0.00626422511, 0.00565685425
      6, 0.0154573889, 0.00327858422, 0.00565685425
      7, 0.00652073463, 0.00924986601, 0.0110308658
      8, 0.0109890625, 0.00626422511, 0.0110308658
      9, 0.0154573889, 0.00327858422, 0.0110308658
*Element, type=S4
1, 1, 2, 5, 4
2, 2, 3, 6, 5
3, 4, 5, 8, 7
4, 5, 6, 9, 8
*Elset, elset=Set-1, generate
 1,  4,  1
** Section: Section-1
*Shell Section, elset=Set-1, material=Material-1
0.001, 5
*End Part
**  
*Part, name=Part-3
*Node
      1, 0.0155354254, 0.00288626994, 0.000282842724
      2,  0.012549785, -0.00158205722, 0.000282842724
      3, 0.00956414361, -0.0060503846, 0.000282842724
      4, 0.0155354254, 0.00288626994, 0.00565685425
      5,  0.012549785, -0.00158205722, 0.00565685425
      6, 0.00956414361, -0.0060503846, 0.00565685425
      7, 0.0155354254, 0.00288626994, 0.0110308658
      8,  0.012549785, -0.00158205722, 0.0110308658
      9, 0.00956414361, -0.0060503846, 0.0110308658
*Element, type=S4
1, 1, 2, 5, 4
2, 2, 3, 6, 5
3, 4, 5, 8, 7
4, 5, 6, 9, 8
*Elset, elset=Set-1, generate
 1,  4,  1
** Section: Section-1
*Shell Section, elset=Set-1, material=Material-1
0.001, 5
*End Part
**  
*Part, name=Part-4
*Node
      1, 0.00917182956, -0.00612842059, 0.000282842724
      2, 0.00470350264, -0.00314277993, 0.000282842724
      3, 0.000235175117, -0.000157138988, 0.000282842724
      4, 0.00917182956, -0.00612842059, 0.00565685425
      5, 0.00470350264, -0.00314277993, 0.00565685425
      6, 0.000235175117, -0.000157138988, 0.00565685425
      7, 0.00917182956, -0.00612842059, 0.0110308658
      8, 0.00470350264, -0.00314277993, 0.0110308658
      9, 0.000235175117, -0.000157138988, 0.0110308658
*Element, type=S4
1, 1, 2, 5, 4
2, 2, 3, 6, 5
3, 4, 5, 8, 7
4, 5, 6, 9, 8
*Elset, elset=Set-1, generate
 1,  4,  1
** Section: Section-1
*Shell Section, elset=Set-1, material=Material-1
0.001, 5
*End Part
**  
*Part, name=Part-5
*Node
      1, 0.000392314105, 7.80361297e-05, 0.0113137085
      2, 0.00486064143, -0.00290760468, 0.0113137085
      3, 0.00932896882, -0.00589324534, 0.0113137085
      4, 0.00337795494, 0.00454636337, 0.0113137085
      5, 0.00784628186, 0.00156072259, 0.0113137085
      6, 0.0123146093, -0.0014249183, 0.0113137085
      7, 0.00636359584, 0.00901469029, 0.0113137085
      8, 0.0108319232, 0.00602904987, 0.0113137085
      9, 0.0153002506, 0.00304340897, 0.0113137085
*Element, type=S4
1, 1, 2, 5, 4
2, 2, 3, 6, 5
3, 4, 5, 8, 7
4, 5, 6, 9, 8
*Elset, elset=Set-1, generate
 1,  4,  1
** Section: Section-1
*Shell Section, elset=Set-1, material=Material-1
0.001, 5
*End Part
**  
*Part, name=Part-6
*Node
      1, 0.0312279891, 0.000235175117, 0.000282842724
      2, 0.0282423496, 0.00470350264, 0.000282842724
      3, 0.0252567083, 0.00917182956, 0.000282842724
      4, 0.0312279891, 0.000235175117, 0.00565685425
      5, 0.0282423496, 0.00470350264, 0.00565685425
      6, 0.0252567083, 0.00917182956, 0.00565685425
      7, 0.0312279891, 0.000235175117, 0.0110308658
      8, 0.0282423496, 0.00470350264, 0.0110308658
      9, 0.0252567083, 0.00917182956, 0.0110308658
*Element, type=S4
1, 1, 2, 5, 4
2, 2, 3, 6, 5
3, 4, 5, 8, 7
4, 5, 6, 9, 8
*Elset, elset=Set-1, generate
 1,  4,  1
** Section: Section-1
*Shell Section, elset=Set-1, material=Material-1
0.001, 5
*End Part
**  
*Part, name=Part-7
*Node
      1, 0.0248643942, 0.00924986601, 0.000282842724
      2, 0.0203960668, 0.00626422511, 0.000282842724
      3, 0.0159277394, 0.00327858422, 0.000282842724
      4, 0.0248643942, 0.00924986601, 0.00565685425
      5, 0.0203960668, 0.00626422511, 0.00565685425
      6, 0.0159277394, 0.00327858422, 0.00565685425
      7, 0.0248643942, 0.00924986601, 0.0110308658
      8, 0.0203960668, 0.00626422511, 0.0110308658
      9, 0.0159277394, 0.00327858422, 0.0110308658
*Element, type=S4
1, 1, 2, 5, 4
2, 2, 3, 6, 5
3, 4, 5, 8, 7
4, 5, 6, 9, 8
*Elset, elset=Set-1, generate
 1,  4,  1
** Section: Section-1
*Shell Section, elset=Set-1, material=Material-1
0.001, 5
*End Part
**  
*Part, name=Part-8
*Node
      1, 0.0158497039, 0.00288626994, 0.000282842724
      2, 0.0188353434, -0.00158205722, 0.000282842724
      3, 0.0218209848, -0.0060503846, 0.000282842724
      4, 0.0158497039, 0.00288626994, 0.00565685425
      5, 0.0188353434, -0.00158205722, 0.00565685425
      6, 0.0218209848, -0.0060503846, 0.00565685425
      7, 0.0158497039, 0.00288626994, 0.0110308658
      8, 0.0188353434, -0.00158205722, 0.0110308658
      9, 0.0218209848, -0.0060503846, 0.0110308658
*Element, type=S4
1, 1, 2, 5, 4
2, 2, 3, 6, 5
3, 4, 5, 8, 7
4, 5, 6, 9, 8
*Elset, elset=Set-1, generate
 1,  4,  1
** Section: Section-1
*Shell Section, elset=Set-1, material=Material-1
0.001, 5
*End Part
**  
*Part, name=Part-9
*Node
      1, 0.0222132988, -0.00612842059, 0.000282842724
      2, 0.0266816262, -0.00314277993, 0.000282842724
      3, 0.0311499536, -0.000157138988, 0.000282842724
      4, 0.0222132988, -0.00612842059, 0.00565685425
      5, 0.0266816262, -0.00314277993, 0.00565685425
      6, 0.0311499536, -0.000157138988, 0.00565685425
      7, 0.0222132988, -0.00612842059, 0.0110308658
      8, 0.0266816262, -0.00314277993, 0.0110308658
      9, 0.0311499536, -0.000157138988, 0.0110308658
*Element, type=S4
1, 1, 2, 5, 4
2, 2, 3, 6, 5
3, 4, 5, 8, 7
4, 5, 6, 9, 8
*Elset, elset=Set-1, generate
 1,  4,  1
** Section: Section-1
*Shell Section, elset=Set-1, material=Material-1
0.001, 5
*End Part
**  
*Part, name=Part-10
*Node
      1, 0.0309928153, 7.80361297e-05, 0.0113137085
      2, 0.0265244879, -0.00290760468, 0.0113137085
      3, 0.0220561605, -0.00589324534, 0.0113137085
      4, 0.0280071739, 0.00454636337, 0.0113137085
      5, 0.0235388465, 0.00156072259, 0.0113137085
      6, 0.0190705191, -0.0014249183, 0.0113137085
      7, 0.0250215326, 0.00901469029, 0.0113137085
      8, 0.0205532052, 0.00602904987, 0.0113137085
      9, 0.0160848778, 0.00304340897, 0.0113137085
*Element, type=S4
1, 1, 2, 5, 4
2, 2, 3, 6, 5
3, 4, 5, 8, 7
4, 5, 6, 9, 8
*Elset, elset=Set-1, generate
 1,  4,  1
** Section: Section-1
*Shell Section, elset=Set-1, material=Material-1
0.001, 5
*End Part
**  
*Part, name=Part-11
*Node
      1, 0.00406023767, 0.0182102956, 0.000282842724
      2, 0.00666507287, 0.0215666089, 0.000282842724
      3, 0.00926990807, 0.0249229204, 0.000282842724
      4, 0.00406023767, 0.0182102956, 0.00565685425
      5, 0.00666507287, 0.0215666089, 0.00565685425
      6, 0.00926990807, 0.0249229204, 0.00565685425
      7, 0.00406023767, 0.0182102956, 0.0110308658
      8, 0.00666507287, 0.0215666089, 0.0110308658
      9, 0.00926990807, 0.0249229204, 0.0110308658
*Element, type=S4
1, 1, 2, 5, 4
2, 2, 3, 6, 5
3, 4, 5, 8, 7
4, 5, 6, 9, 8
*Elset, elset=Set-1, generate
 1,  4,  1
** Section: Section-1
*Shell Section, elset=Set-1, material=Material-1
0.001, 5
*End Part
**  
*Part, name=Part-12
*Node
      1, 0.00946606509, 0.0248839036, 0.000282842724
      2, 0.0105882138, 0.0207862481, 0.000282842724
      3, 0.0117103625, 0.0166885927, 0.000282842724
      4, 0.00946606509, 0.0248839036, 0.00565685425
      5, 0.0105882138, 0.0207862481, 0.00565685425
      6, 0.0117103625, 0.0166885927, 0.00565685425
      7, 0.00946606509, 0.0248839036, 0.0110308658
      8, 0.0105882138, 0.0207862481, 0.0110308658
      9, 0.0117103625, 0.0166885927, 0.0110308658
*Element, type=S4
1, 1, 2, 5, 4
2, 2, 3, 6, 5
3, 4, 5, 8, 7
4, 5, 6, 9, 8
*Elset, elset=Set-1, generate
 1,  4,  1
** Section: Section-1
*Shell Section, elset=Set-1, material=Material-1
0.001, 5
*End Part
**  
*Part, name=Part-13
*Node
      1,  0.011632327, 0.0162962768, 0.000282842724
      2, 0.00902749132, 0.0129399654, 0.000282842724
      3, 0.00642265612, 0.00958365295, 0.000282842724
      4,  0.011632327, 0.0162962768, 0.00565685425
      5, 0.00902749132, 0.0129399654, 0.00565685425
      6, 0.00642265612, 0.00958365295, 0.00565685425
      7,  0.011632327, 0.0162962768, 0.0110308658
      8, 0.00902749132, 0.0129399654, 0.0110308658
      9, 0.00642265612, 0.00958365295, 0.0110308658
*Element, type=S4
1, 1, 2, 5, 4
2, 2, 3, 6, 5
3, 4, 5, 8, 7
4, 5, 6, 9, 8
*Elset, elset=Set-1, generate
 1,  4,  1
** Section: Section-1
*Shell Section, elset=Set-1, material=Material-1
0.001, 5
*End Part
**  
*Part, name=Part-14
*Node
      1, 0.0062264991, 0.00962267071, 0.000282842724
      2, 0.00510435039, 0.0137203261, 0.000282842724
      3, 0.00398220168, 0.0178179815, 0.000282842724
      4, 0.0062264991, 0.00962267071, 0.00565685425
      5, 0.00510435039, 0.0137203261, 0.00565685425
      6, 0.00398220168, 0.0178179815, 0.00565685425
      7, 0.0062264991, 0.00962267071, 0.0110308658
      8, 0.00510435039, 0.0137203261, 0.0110308658
      9, 0.00398220168, 0.0178179815, 0.0110308658
*Element, type=S4
1, 1, 2, 5, 4
2, 2, 3, 6, 5
3, 4, 5, 8, 7
4, 5, 6, 9, 8
*Elset, elset=Set-1, generate
 1,  4,  1
** Section: Section-1
*Shell Section, elset=Set-1, material=Material-1
0.001, 5
*End Part
**  
*Part, name=Part-15
*Node
      1, 0.00411929796, 0.0179946311, 0.0113137085
      2, 0.00524144713, 0.0138969747, 0.0113137085
      3, 0.00636359584, 0.00979931932, 0.0113137085
      4, 0.00672413362, 0.0213509426, 0.0113137085
      5, 0.00784628186, 0.0172532871, 0.0113137085
      6, 0.0089684315, 0.0131556317, 0.0113137085
      7, 0.00932896882, 0.0247072559, 0.0113137085
      8, 0.0104511175, 0.0206095986, 0.0113137085
      9, 0.0115732662, 0.0165119432, 0.0113137085
*Element, type=S4
1, 1, 2, 5, 4
2, 2, 3, 6, 5
3, 4, 5, 8, 7
4, 5, 6, 9, 8
*Elset, elset=Set-1, generate
 1,  4,  1
** Section: Section-1
*Shell Section, elset=Set-1, material=Material-1
0.001, 5
*End Part
**  
*Part, name=Part-16
*Node
      1, 0.0273248907, 0.0182102956, 0.000282842724
      2,  0.024720056, 0.0215666089, 0.000282842724
      3, 0.0221152212, 0.0249229204, 0.000282842724
      4, 0.0273248907, 0.0182102956, 0.00565685425
      5,  0.024720056, 0.0215666089, 0.00565685425
      6, 0.0221152212, 0.0249229204, 0.00565685425
      7, 0.0273248907, 0.0182102956, 0.0110308658
      8,  0.024720056, 0.0215666089, 0.0110308658
      9, 0.0221152212, 0.0249229204, 0.0110308658
*Element, type=S4
1, 1, 2, 5, 4
2, 2, 3, 6, 5
3, 4, 5, 8, 7
4, 5, 6, 9, 8
*Elset, elset=Set-1, generate
 1,  4,  1
** Section: Section-1
*Shell Section, elset=Set-1, material=Material-1
0.001, 5
*End Part
**  
*Part, name=Part-17
*Node
      1, 0.0219190642, 0.0248839036, 0.000282842724
      2, 0.0207969155, 0.0207862481, 0.000282842724
      3, 0.0196747668, 0.0166885927, 0.000282842724
      4, 0.0219190642, 0.0248839036, 0.00565685425
      5, 0.0207969155, 0.0207862481, 0.00565685425
      6, 0.0196747668, 0.0166885927, 0.00565685425
      7, 0.0219190642, 0.0248839036, 0.0110308658
      8, 0.0207969155, 0.0207862481, 0.0110308658
      9, 0.0196747668, 0.0166885927, 0.0110308658
*Element, type=S4
1, 1, 2, 5, 4
2, 2, 3, 6, 5
3, 4, 5, 8, 7
4, 5, 6, 9, 8
*Elset, elset=Set-1, generate
 1,  4,  1
** Section: Section-1
*Shell Section, elset=Set-1, material=Material-1
0.001, 5
*End Part
**  
*Part, name=Part-18
*Node
      1, 0.0197528023, 0.0162962768, 0.000282842724
      2, 0.0223576371, 0.0129399654, 0.000282842724
      3, 0.0249624718, 0.00958365295, 0.000282842724
      4, 0.0197528023, 0.0162962768, 0.00565685425
      5, 0.0223576371, 0.0129399654, 0.00565685425
      6, 0.0249624718, 0.00958365295, 0.00565685425
      7, 0.0197528023, 0.0162962768, 0.0110308658
      8, 0.0223576371, 0.0129399654, 0.0110308658
      9, 0.0249624718, 0.00958365295, 0.0110308658
*Element, type=S4
1, 1, 2, 5, 4
2, 2, 3, 6, 5
3, 4, 5, 8, 7
4, 5, 6, 9, 8
*Elset, elset=Set-1, generate
 1,  4,  1
** Section: Section-1
*Shell Section, elset=Set-1, material=Material-1
0.001, 5
*End Part
**  
*Part, name=Part-19
*Node
      1, 0.0251586307, 0.00962267071, 0.000282842724
      2, 0.0262807794, 0.0137203261, 0.000282842724
      3, 0.0274029281, 0.0178179815, 0.000282842724
      4, 0.0251586307, 0.00962267071, 0.00565685425
      5, 0.0262807794, 0.0137203261, 0.00565685425
      6, 0.0274029281, 0.0178179815, 0.00565685425
      7, 0.0251586307, 0.00962267071, 0.0110308658
      8, 0.0262807794, 0.0137203261, 0.0110308658
      9, 0.0274029281, 0.0178179815, 0.0110308658
*Element, type=S4
1, 1, 2, 5, 4
2, 2, 3, 6, 5
3, 4, 5, 8, 7
4, 5, 6, 9, 8
*Elset, elset=Set-1, generate
 1,  4,  1
** Section: Section-1
*Shell Section, elset=Set-1, material=Material-1
0.001, 5
*End Part
**  
*Part, name=Part-20
*Node
      1,   0.02726583, 0.0179946311, 0.0113137085
      2, 0.0261436813, 0.0138969747, 0.0113137085
      3, 0.0250215326, 0.00979931932, 0.0113137085
      4, 0.0246609952, 0.0213509426, 0.0113137085
      5, 0.0235388465, 0.0172532871, 0.0113137085
      6, 0.0224166978, 0.0131556317, 0.0113137085
      7, 0.0220561605, 0.0247072559, 0.0113137085
      8, 0.0209340118, 0.0206095986, 0.0113137085
      9, 0.0198118631, 0.0165119432, 0.0113137085
*Element, type=S4
1, 1, 2, 5, 4
2, 2, 3, 6, 5
3, 4, 5, 8, 7
4, 5, 6, 9, 8
*Elset, elset=Set-1, generate
 1,  4,  1
** Section: Section-1
*Shell Section, elset=Set-1, material=Material-1
0.001, 5
*End Part
**  
*Part, name=Part-21
*Node
      1, 0.000157138988,  0.031620305, 0.000282842724
      2, 0.00314277993, 0.0360886306, 0.000282842724
      3, 0.00612842059, 0.0405569598, 0.000282842724
      4, 0.000157138988,  0.031620305, 0.00565685425
      5, 0.00314277993, 0.0360886306, 0.00565685425
      6, 0.00612842059, 0.0405569598, 0.00565685425
      7, 0.000157138988,  0.031620305, 0.0110308658
      8, 0.00314277993, 0.0360886306, 0.0110308658
      9, 0.00612842059, 0.0405569598, 0.0110308658
*Element, type=S4
1, 1, 2, 5, 4
2, 2, 3, 6, 5
3, 4, 5, 8, 7
4, 5, 6, 9, 8
*Elset, elset=Set-1, generate
 1,  4,  1
** Section: Section-1
*Shell Section, elset=Set-1, material=Material-1
0.001, 5
*End Part
**  
*Part, name=Part-22
*Node
      1, 0.00652073463, 0.0406349935, 0.000282842724
      2, 0.0109890625, 0.0376493521, 0.000282842724
      3, 0.0154573889, 0.0346637145, 0.000282842724
      4, 0.00652073463, 0.0406349935, 0.00565685425
      5, 0.0109890625, 0.0376493521, 0.00565685425
      6, 0.0154573889, 0.0346637145, 0.00565685425
      7, 0.00652073463, 0.0406349935, 0.0110308658
      8, 0.0109890625, 0.0376493521, 0.0110308658
      9, 0.0154573889, 0.0346637145, 0.0110308658
*Element, type=S4
1, 1, 2, 5, 4
2, 2, 3, 6, 5
3, 4, 5, 8, 7
4, 5, 6, 9, 8
*Elset, elset=Set-1, generate
 1,  4,  1
** Section: Section-1
*Shell Section, elset=Set-1, material=Material-1
0.001, 5
*End Part
**  
*Part, name=Part-23
*Node
      1, 0.0155354254, 0.0342714004, 0.000282842724
      2,  0.012549785, 0.0298030712, 0.000282842724
      3, 0.00956414361, 0.0253347438, 0.000282842724
      4, 0.0155354254, 0.0342714004, 0.00565685425
      5,  0.012549785, 0.0298030712, 0.00565685425
      6, 0.00956414361, 0.0253347438, 0.00565685425
      7, 0.0155354254, 0.0342714004, 0.0110308658
      8,  0.012549785, 0.0298030712, 0.0110308658
      9, 0.00956414361, 0.0253347438, 0.0110308658
*Element, type=S4
1, 1, 2, 5, 4
2, 2, 3, 6, 5
3, 4, 5, 8, 7
4, 5, 6, 9, 8
*Elset, elset=Set-1, generate
 1,  4,  1
** Section: Section-1
*Shell Section, elset=Set-1, material=Material-1
0.001, 5
*End Part
**  
*Part, name=Part-24
*Node
      1, 0.00917182956, 0.0252567083, 0.000282842724
      2, 0.00470350264, 0.0282423496, 0.000282842724
      3, 0.000235175117, 0.0312279891, 0.000282842724
      4, 0.00917182956, 0.0252567083, 0.00565685425
      5, 0.00470350264, 0.0282423496, 0.00565685425
      6, 0.000235175117, 0.0312279891, 0.00565685425
      7, 0.00917182956, 0.0252567083, 0.0110308658
      8, 0.00470350264, 0.0282423496, 0.0110308658
      9, 0.000235175117, 0.0312279891, 0.0110308658
*Element, type=S4
1, 1, 2, 5, 4
2, 2, 3, 6, 5
3, 4, 5, 8, 7
4, 5, 6, 9, 8
*Elset, elset=Set-1, generate
 1,  4,  1
** Section: Section-1
*Shell Section, elset=Set-1, material=Material-1
0.001, 5
*End Part
**  
*Part, name=Part-25
*Node
      1, 0.000392314105, 0.0314631648, 0.0113137085
      2, 0.00486064143, 0.0284775235, 0.0113137085
      3, 0.00932896882,  0.025491884, 0.0113137085
      4, 0.00337795494, 0.0359314941, 0.0113137085
      5, 0.00784628186, 0.0329458527, 0.0113137085
      6, 0.0123146093, 0.0299602114, 0.0113137085
      7, 0.00636359584, 0.0403998196, 0.0113137085
      8, 0.0108319232, 0.0374141783, 0.0113137085
      9, 0.0153002506, 0.0344285369, 0.0113137085
*Element, type=S4
1, 1, 2, 5, 4
2, 2, 3, 6, 5
3, 4, 5, 8, 7
4, 5, 6, 9, 8
*Elset, elset=Set-1, generate
 1,  4,  1
** Section: Section-1
*Shell Section, elset=Set-1, material=Material-1
0.001, 5
*End Part
**  
*Part, name=Part-26
*Node
      1, 0.0312279891,  0.031620305, 0.000282842724
      2, 0.0282423496, 0.0360886306, 0.000282842724
      3, 0.0252567083, 0.0405569598, 0.000282842724
      4, 0.0312279891,  0.031620305, 0.00565685425
      5, 0.0282423496, 0.0360886306, 0.00565685425
      6, 0.0252567083, 0.0405569598, 0.00565685425
      7, 0.0312279891,  0.031620305, 0.0110308658
      8, 0.0282423496, 0.0360886306, 0.0110308658
      9, 0.0252567083, 0.0405569598, 0.0110308658
*Element, type=S4
1, 1, 2, 5, 4
2, 2, 3, 6, 5
3, 4, 5, 8, 7
4, 5, 6, 9, 8
*Elset, elset=Set-1, generate
 1,  4,  1
** Section: Section-1
*Shell Section, elset=Set-1, material=Material-1
0.001, 5
*End Part
**  
*Part, name=Part-27
*Node
      1, 0.0248643942, 0.0406349935, 0.000282842724
      2, 0.0203960668, 0.0376493521, 0.000282842724
      3, 0.0159277394, 0.0346637145, 0.000282842724
      4, 0.0248643942, 0.0406349935, 0.00565685425
      5, 0.0203960668, 0.0376493521, 0.00565685425
      6, 0.0159277394, 0.0346637145, 0.00565685425
      7, 0.0248643942, 0.0406349935, 0.0110308658
      8, 0.0203960668, 0.0376493521, 0.0110308658
      9, 0.0159277394, 0.0346637145, 0.0110308658
*Element, type=S4
1, 1, 2, 5, 4
2, 2, 3, 6, 5
3, 4, 5, 8, 7
4, 5, 6, 9, 8
*Elset, elset=Set-1, generate
 1,  4,  1
** Section: Section-1
*Shell Section, elset=Set-1, material=Material-1
0.001, 5
*End Part
**  
*Part, name=Part-28
*Node
      1, 0.0158497039, 0.0342714004, 0.000282842724
      2, 0.0188353434, 0.0298030712, 0.000282842724
      3, 0.0218209848, 0.0253347438, 0.000282842724
      4, 0.0158497039, 0.0342714004, 0.00565685425
      5, 0.0188353434, 0.0298030712, 0.00565685425
      6, 0.0218209848, 0.0253347438, 0.00565685425
      7, 0.0158497039, 0.0342714004, 0.0110308658
      8, 0.0188353434, 0.0298030712, 0.0110308658
      9, 0.0218209848, 0.0253347438, 0.0110308658
*Element, type=S4
1, 1, 2, 5, 4
2, 2, 3, 6, 5
3, 4, 5, 8, 7
4, 5, 6, 9, 8
*Elset, elset=Set-1, generate
 1,  4,  1
** Section: Section-1
*Shell Section, elset=Set-1, material=Material-1
0.001, 5
*End Part
**  
*Part, name=Part-29
*Node
      1, 0.0222132988, 0.0252567083, 0.000282842724
      2, 0.0266816262, 0.0282423496, 0.000282842724
      3, 0.0311499536, 0.0312279891, 0.000282842724
      4, 0.0222132988, 0.0252567083, 0.00565685425
      5, 0.0266816262, 0.0282423496, 0.00565685425
      6, 0.0311499536, 0.0312279891, 0.00565685425
      7, 0.0222132988, 0.0252567083, 0.0110308658
      8, 0.0266816262, 0.0282423496, 0.0110308658
      9, 0.0311499536, 0.0312279891, 0.0110308658
*Element, type=S4
1, 1, 2, 5, 4
2, 2, 3, 6, 5
3, 4, 5, 8, 7
4, 5, 6, 9, 8
*Elset, elset=Set-1, generate
 1,  4,  1
** Section: Section-1
*Shell Section, elset=Set-1, material=Material-1
0.001, 5
*End Part
**  
*Part, name=Part-30
*Node
      1, 0.0309928153, 0.0314631648, 0.0113137085
      2, 0.0265244879, 0.0284775235, 0.0113137085
      3, 0.0220561605,  0.025491884, 0.0113137085
      4, 0.0280071739, 0.0359314941, 0.0113137085
      5, 0.0235388465, 0.0329458527, 0.0113137085
      6, 0.0190705191, 0.0299602114, 0.0113137085
      7, 0.0250215326, 0.0403998196, 0.0113137085
      8, 0.0205532052, 0.0374141783, 0.0113137085
      9, 0.0160848778, 0.0344285369, 0.0113137085
*Element, type=S4
1, 1, 2, 5, 4
2, 2, 3, 6, 5
3, 4, 5, 8, 7
4, 5, 6, 9, 8
*Elset, elset=Set-1, generate
 1,  4,  1
** Section: Section-1
*Shell Section, elset=Set-1, material=Material-1
0.001, 5
*End Part
**  
**
** ASSEMBLY
**
*Assembly, name=Assembly
**  
*Instance, name=Part-1-1, part=Part-1
*End Instance
**  
*Instance, name=Part-2-1, part=Part-2
*End Instance
**  
*Instance, name=Part-3-1, part=Part-3
*End Instance
**  
*Instance, name=Part-4-1, part=Part-4
*End Instance
**  
*Instance, name=Part-5-1, part=Part-5
*End Instance
**  
*Instance, name=Part-6-1, part=Part-6
*End Instance
**  
*Instance, name=Part-7-1, part=Part-7
*End Instance
**  
*Instance, name=Part-8-1, part=Part-8
*End Instance
**  
*Instance, name=Part-9-1, part=Part-9
*End Instance
**  
*Instance, name=Part-10-1, part=Part-10
*End Instance
**  
*Instance, name=Part-11-1, part=Part-11
*End Instance
**  
*Instance, name=Part-12-1, part=Part-12
*End Instance
**  
*Instance, name=Part-13-1, part=Part-13
*End Instance
**  
*Instance, name=Part-14-1, part=Part-14
*End Instance
**  
*Instance, name=Part-15-1, part=Part-15
*End Instance
**  
*Instance, name=Part-16-1, part=Part-16
*End Instance
**  
*Instance, name=Part-17-1, part=Part-17
*End Instance
**  
*Instance, name=Part-18-1, part=Part-18
*End Instance
**  
*Instance, name=Part-19-1, part=Part-19
*End Instance
**  
*Instance, name=Part-20-1, part=Part-20
*End Instance
**  
*Instance, name=Part-21-1, part=Part-21
*End Instance
**  
*Instance, name=Part-22-1, part=Part-22
*End Instance
**  
*Instance, name=Part-23-1, part=Part-23
*End Instance
**  
*Instance, name=Part-24-1, part=Part-24
*End Instance
**  
*Instance, name=Part-25-1, part=Part-25
*End Instance
**  
*Instance, name=Part-26-1, part=Part-26
*End Instance
**  
*Instance, name=Part-27-1, part=Part-27
*End Instance
**  
*Instance, name=Part-28-1, part=Part-28
*End Instance
**  
*Instance, name=Part-29-1, part=Part-29
*End Instance
**  
*Instance, name=Part-30-1, part=Part-30
*End Instance
**  
*Element, type=CONN3D2
1, Part-1-1.4, Part-4-1.6
*Connector Section, elset=Wire-1-4-2-Set-1, behavior=ConnSect-1
Hinge,
Part-1-1-Datum-csys-1-B, Part-4-1-Datum-csys-4-B
*Element, type=CONN3D2
2, Part-14-1.4, Part-1-1.6
*Connector Section, elset=Wire-14-1-2-Set-1, behavior=ConnSect-1
Hinge,
Part-14-1-Datum-csys-14-B, Part-1-1-Datum-csys-1-B
*Element, type=CONN3D2
3, Part-2-1.4, Part-1-1.6
*Connector Section, elset=Wire-2-1-2-Set-1, behavior=ConnSect-1
Hinge,
Part-2-1-Datum-csys-2-B, Part-1-1-Datum-csys-1-B
*Element, type=CONN3D2
4, Part-2-1.4, Part-13-1.6
*Connector Section, elset=Wire-2-13-2-Set-1, behavior=ConnSect-1
Hinge,
Part-2-1-Datum-csys-2-B, Part-13-1-Datum-csys-13-B
*Element, type=CONN3D2
5, Part-2-1.6, Part-7-1.6
*Connector Section, elset=Wire-2-7-2-Set-1, behavior=ConnSect-1
Hinge,
Part-2-1-Datum-csys-2-B, Part-7-1-Datum-csys-7-B
*Element, type=CONN3D2
6, Part-3-1.4, Part-2-1.6
*Connector Section, elset=Wire-3-2-2-Set-1, behavior=ConnSect-1
Hinge,
Part-3-1-Datum-csys-3-B, Part-2-1-Datum-csys-2-B
*Element, type=CONN3D2
7, Part-3-1.4, Part-8-1.4
*Connector Section, elset=Wire-3-8-2-Set-1, behavior=ConnSect-1
Hinge,
Part-3-1-Datum-csys-3-B, Part-8-1-Datum-csys-8-B
*Element, type=CONN3D2
8, Part-4-1.4, Part-3-1.6
*Connector Section, elset=Wire-4-3-2-Set-1, behavior=ConnSect-1
Hinge,
Part-4-1-Datum-csys-4-B, Part-3-1-Datum-csys-3-B
*Element, type=CONN3D2
9, Part-6-1.4, Part-9-1.6
*Connector Section, elset=Wire-6-9-2-Set-1, behavior=ConnSect-1
Hinge,
Part-6-1-Datum-csys-6-B, Part-9-1-Datum-csys-9-B
*Element, type=CONN3D2
10, Part-19-1.4, Part-6-1.6
*Connector Section, elset=Wire-19-6-2-Set-1, behavior=ConnSect-1
Hinge,
Part-19-1-Datum-csys-19-B, Part-6-1-Datum-csys-6-B
*Element, type=CONN3D2
11, Part-7-1.4, Part-6-1.6
*Connector Section, elset=Wire-7-6-2-Set-1, behavior=ConnSect-1
Hinge,
Part-7-1-Datum-csys-7-B, Part-6-1-Datum-csys-6-B
*Element, type=CONN3D2
12, Part-7-1.4, Part-18-1.6
*Connector Section, elset=Wire-7-18-2-Set-1, behavior=ConnSect-1
Hinge,
Part-7-1-Datum-csys-7-B, Part-18-1-Datum-csys-18-B
*Element, type=CONN3D2
13, Part-8-1.4, Part-7-1.6
*Connector Section, elset=Wire-8-7-2-Set-1, behavior=ConnSect-1
Hinge,
Part-8-1-Datum-csys-8-B, Part-7-1-Datum-csys-7-B
*Element, type=CONN3D2
14, Part-9-1.4, Part-8-1.6
*Connector Section, elset=Wire-9-8-2-Set-1, behavior=ConnSect-1
Hinge,
Part-9-1-Datum-csys-9-B, Part-8-1-Datum-csys-8-B
*Element, type=CONN3D2
15, Part-11-1.4, Part-14-1.6
*Connector Section, elset=Wire-11-14-2-Set-1, behavior=ConnSect-1
Hinge,
Part-11-1-Datum-csys-11-B, Part-14-1-Datum-csys-14-B
*Element, type=CONN3D2
16, Part-24-1.4, Part-11-1.6
*Connector Section, elset=Wire-24-11-2-Set-1, behavior=ConnSect-1
Hinge,
Part-24-1-Datum-csys-24-B, Part-11-1-Datum-csys-11-B
*Element, type=CONN3D2
17, Part-12-1.4, Part-11-1.6
*Connector Section, elset=Wire-12-11-2-Set-1, behavior=ConnSect-1
Hinge,
Part-12-1-Datum-csys-12-B, Part-11-1-Datum-csys-11-B
*Element, type=CONN3D2
18, Part-12-1.4, Part-23-1.6
*Connector Section, elset=Wire-12-23-2-Set-1, behavior=ConnSect-1
Hinge,
Part-12-1-Datum-csys-12-B, Part-23-1-Datum-csys-23-B
*Element, type=CONN3D2
19, Part-13-1.4, Part-12-1.6
*Connector Section, elset=Wire-13-12-2-Set-1, behavior=ConnSect-1
Hinge,
Part-13-1-Datum-csys-13-B, Part-12-1-Datum-csys-12-B
*Element, type=CONN3D2
20, Part-14-1.4, Part-13-1.6
*Connector Section, elset=Wire-14-13-2-Set-1, behavior=ConnSect-1
Hinge,
Part-14-1-Datum-csys-14-B, Part-13-1-Datum-csys-13-B
*Element, type=CONN3D2
21, Part-16-1.4, Part-19-1.6
*Connector Section, elset=Wire-16-19-2-Set-1, behavior=ConnSect-1
Hinge,
Part-16-1-Datum-csys-16-B, Part-19-1-Datum-csys-19-B
*Element, type=CONN3D2
22, Part-29-1.4, Part-16-1.6
*Connector Section, elset=Wire-29-16-2-Set-1, behavior=ConnSect-1
Hinge,
Part-29-1-Datum-csys-29-B, Part-16-1-Datum-csys-16-B
*Element, type=CONN3D2
23, Part-17-1.4, Part-16-1.6
*Connector Section, elset=Wire-17-16-2-Set-1, behavior=ConnSect-1
Hinge,
Part-17-1-Datum-csys-17-B, Part-16-1-Datum-csys-16-B
*Element, type=CONN3D2
24, Part-17-1.4, Part-28-1.6
*Connector Section, elset=Wire-17-28-2-Set-1, behavior=ConnSect-1
Hinge,
Part-17-1-Datum-csys-17-B, Part-28-1-Datum-csys-28-B
*Element, type=CONN3D2
25, Part-18-1.4, Part-17-1.6
*Connector Section, elset=Wire-18-17-2-Set-1, behavior=ConnSect-1
Hinge,
Part-18-1-Datum-csys-18-B, Part-17-1-Datum-csys-17-B
*Element, type=CONN3D2
26, Part-19-1.4, Part-18-1.6
*Connector Section, elset=Wire-19-18-2-Set-1, behavior=ConnSect-1
Hinge,
Part-19-1-Datum-csys-19-B, Part-18-1-Datum-csys-18-B
*Element, type=CONN3D2
27, Part-21-1.4, Part-24-1.6
*Connector Section, elset=Wire-21-24-2-Set-1, behavior=ConnSect-1
Hinge,
Part-21-1-Datum-csys-21-B, Part-24-1-Datum-csys-24-B
*Element, type=CONN3D2
28, Part-22-1.4, Part-21-1.6
*Connector Section, elset=Wire-22-21-2-Set-1, behavior=ConnSect-1
Hinge,
Part-22-1-Datum-csys-22-B, Part-21-1-Datum-csys-21-B
*Element, type=CONN3D2
29, Part-23-1.4, Part-22-1.6
*Connector Section, elset=Wire-23-22-2-Set-1, behavior=ConnSect-1
Hinge,
Part-23-1-Datum-csys-23-B, Part-22-1-Datum-csys-22-B
*Element, type=CONN3D2
30, Part-24-1.4, Part-23-1.6
*Connector Section, elset=Wire-24-23-2-Set-1, behavior=ConnSect-1
Hinge,
Part-24-1-Datum-csys-24-B, Part-23-1-Datum-csys-23-B
*Element, type=CONN3D2
31, Part-26-1.4, Part-29-1.6
*Connector Section, elset=Wire-26-29-2-Set-1, behavior=ConnSect-1
Hinge,
Part-26-1-Datum-csys-26-B, Part-29-1-Datum-csys-29-B
*Element, type=CONN3D2
32, Part-27-1.4, Part-26-1.6
*Connector Section, elset=Wire-27-26-2-Set-1, behavior=ConnSect-1
Hinge,
Part-27-1-Datum-csys-27-B, Part-26-1-Datum-csys-26-B
*Element, type=CONN3D2
33, Part-27-1.6, Part-22-1.6
*Connector Section, elset=Wire-27-22-2-Set-1, behavior=ConnSect-1
Hinge,
Part-27-1-Datum-csys-27-B, Part-22-1-Datum-csys-22-B
*Element, type=CONN3D2
34, Part-28-1.4, Part-27-1.6
*Connector Section, elset=Wire-28-27-2-Set-1, behavior=ConnSect-1
Hinge,
Part-28-1-Datum-csys-28-B, Part-27-1-Datum-csys-27-B
*Element, type=CONN3D2
35, Part-28-1.4, Part-23-1.4
*Connector Section, elset=Wire-28-23-2-Set-1, behavior=ConnSect-1
Hinge,
Part-28-1-Datum-csys-28-B, Part-23-1-Datum-csys-23-B
*Element, type=CONN3D2
36, Part-29-1.4, Part-28-1.6
*Connector Section, elset=Wire-29-28-2-Set-1, behavior=ConnSect-1
Hinge,
Part-29-1-Datum-csys-29-B, Part-28-1-Datum-csys-28-B
*Element, type=CONN3D2
37, Part-5-1.4, Part-1-1.8
*Connector Section, elset=Wire-5-1-2-Set-1, behavior=ConnSect-1
Hinge,
Part-5-1-Datum-csys-5-B, Part-1-1-Datum-csys-1-A
*Element, type=CONN3D2
38, Part-5-1.8, Part-2-1.8
*Connector Section, elset=Wire-5-2-2-Set-1, behavior=ConnSect-1
Hinge,
Part-5-1-Datum-csys-5-A, Part-2-1-Datum-csys-2-A
*Element, type=CONN3D2
39, Part-5-1.6, Part-3-1.8
*Connector Section, elset=Wire-5-3-2-Set-1, behavior=ConnSect-1
Hinge,
Part-5-1-Datum-csys-5-B, Part-3-1-Datum-csys-3-A
*Element, type=CONN3D2
40, Part-5-1.2, Part-4-1.8
*Connector Section, elset=Wire-5-4-2-Set-1, behavior=ConnSect-1
Hinge,
Part-5-1-Datum-csys-5-A, Part-4-1-Datum-csys-4-A
*Element, type=CONN3D2
41, Part-10-1.4, Part-6-1.8
*Connector Section, elset=Wire-10-6-2-Set-1, behavior=ConnSect-1
Hinge,
Part-10-1-Datum-csys-10-B, Part-6-1-Datum-csys-6-A
*Element, type=CONN3D2
42, Part-10-1.8, Part-7-1.8
*Connector Section, elset=Wire-10-7-2-Set-1, behavior=ConnSect-1
Hinge,
Part-10-1-Datum-csys-10-A, Part-7-1-Datum-csys-7-A
*Element, type=CONN3D2
43, Part-10-1.6, Part-8-1.8
*Connector Section, elset=Wire-10-8-2-Set-1, behavior=ConnSect-1
Hinge,
Part-10-1-Datum-csys-10-B, Part-8-1-Datum-csys-8-A
*Element, type=CONN3D2
44, Part-10-1.2, Part-9-1.8
*Connector Section, elset=Wire-10-9-2-Set-1, behavior=ConnSect-1
Hinge,
Part-10-1-Datum-csys-10-A, Part-9-1-Datum-csys-9-A
*Element, type=CONN3D2
45, Part-15-1.4, Part-11-1.8
*Connector Section, elset=Wire-15-11-2-Set-1, behavior=ConnSect-1
Hinge,
Part-15-1-Datum-csys-15-B, Part-11-1-Datum-csys-11-A
*Element, type=CONN3D2
46, Part-15-1.8, Part-12-1.8
*Connector Section, elset=Wire-15-12-2-Set-1, behavior=ConnSect-1
Hinge,
Part-15-1-Datum-csys-15-A, Part-12-1-Datum-csys-12-A
*Element, type=CONN3D2
47, Part-15-1.6, Part-13-1.8
*Connector Section, elset=Wire-15-13-2-Set-1, behavior=ConnSect-1
Hinge,
Part-15-1-Datum-csys-15-B, Part-13-1-Datum-csys-13-A
*Element, type=CONN3D2
48, Part-15-1.2, Part-14-1.8
*Connector Section, elset=Wire-15-14-2-Set-1, behavior=ConnSect-1
Hinge,
Part-15-1-Datum-csys-15-A, Part-14-1-Datum-csys-14-A
*Element, type=CONN3D2
49, Part-20-1.4, Part-16-1.8
*Connector Section, elset=Wire-20-16-2-Set-1, behavior=ConnSect-1
Hinge,
Part-20-1-Datum-csys-20-B, Part-16-1-Datum-csys-16-A
*Element, type=CONN3D2
50, Part-20-1.8, Part-17-1.8
*Connector Section, elset=Wire-20-17-2-Set-1, behavior=ConnSect-1
Hinge,
Part-20-1-Datum-csys-20-A, Part-17-1-Datum-csys-17-A
*Element, type=CONN3D2
51, Part-20-1.6, Part-18-1.8
*Connector Section, elset=Wire-20-18-2-Set-1, behavior=ConnSect-1
Hinge,
Part-20-1-Datum-csys-20-B, Part-18-1-Datum-csys-18-A
*Element, type=CONN3D2
52, Part-20-1.2, Part-19-1.8
*Connector Section, elset=Wire-20-19-2-Set-1, behavior=ConnSect-1
Hinge,
Part-20-1-Datum-csys-20-A, Part-19-1-Datum-csys-19-A
*Element, type=CONN3D2
53, Part-25-1.4, Part-21-1.8
*Connector Section, elset=Wire-25-21-2-Set-1, behavior=ConnSect-1
Hinge,
Part-25-1-Datum-csys-25-B, Part-21-1-Datum-csys-21-A
*Element, type=CONN3D2
54, Part-25-1.8, Part-22-1.8
*Connector Section, elset=Wire-25-22-2-Set-1, behavior=ConnSect-1
Hinge,
Part-25-1-Datum-csys-25-A, Part-22-1-Datum-csys-22-A
*Element, type=CONN3D2
55, Part-25-1.6, Part-23-1.8
*Connector Section, elset=Wire-25-23-2-Set-1, behavior=ConnSect-1
Hinge,
Part-25-1-Datum-csys-25-B, Part-23-1-Datum-csys-23-A
*Element, type=CONN3D2
56, Part-25-1.2, Part-24-1.8
*Connector Section, elset=Wire-25-24-2-Set-1, behavior=ConnSect-1
Hinge,
Part-25-1-Datum-csys-25-A, Part-24-1-Datum-csys-24-A
*Element, type=CONN3D2
57, Part-30-1.4, Part-26-1.8
*Connector Section, elset=Wire-30-26-2-Set-1, behavior=ConnSect-1
Hinge,
Part-30-1-Datum-csys-30-B, Part-26-1-Datum-csys-26-A
*Element, type=CONN3D2
58, Part-30-1.8, Part-27-1.8
*Connector Section, elset=Wire-30-27-2-Set-1, behavior=ConnSect-1
Hinge,
Part-30-1-Datum-csys-30-A, Part-27-1-Datum-csys-27-A
*Element, type=CONN3D2
59, Part-30-1.6, Part-28-1.8
*Connector Section, elset=Wire-30-28-2-Set-1, behavior=ConnSect-1
Hinge,
Part-30-1-Datum-csys-30-B, Part-28-1-Datum-csys-28-A
*Element, type=CONN3D2
60, Part-30-1.2, Part-29-1.8
*Connector Section, elset=Wire-30-29-2-Set-1, behavior=ConnSect-1
Hinge,
Part-30-1-Datum-csys-30-A, Part-29-1-Datum-csys-29-A
*Nset, nset=Set-61, instance=Part-1-1, generate
 1,  3,  1
*Nset, nset=Set-61, instance=Part-2-1, generate
 1,  3,  1
*Nset, nset=Set-61, instance=Part-4-1, generate
 1,  3,  1
*Nset, nset=Set-61, instance=Part-8-1, generate
 1,  3,  1
*Nset, nset=Set-61, instance=Part-16-1, generate
 1,  3,  1
*Nset, nset=Set-61, instance=Part-24-1, generate
 1,  3,  1
*Nset, nset=Set-61, instance=Part-12-1, generate
 1,  3,  1
*Nset, nset=Set-61, instance=Part-28-1, generate
 1,  3,  1
*Nset, nset=Set-61, instance=Part-6-1, generate
 1,  3,  1
*Nset, nset=Set-61, instance=Part-18-1, generate
 1,  3,  1
*Nset, nset=Set-61, instance=Part-26-1, generate
 1,  3,  1
*Nset, nset=Set-61, instance=Part-14-1, generate
 1,  3,  1
*Nset, nset=Set-61, instance=Part-22-1, generate
 1,  3,  1
*Nset, nset=Set-61, instance=Part-3-1, generate
 1,  3,  1
*Nset, nset=Set-61, instance=Part-9-1, generate
 1,  3,  1
*Nset, nset=Set-61, instance=Part-17-1, generate
 1,  3,  1
*Nset, nset=Set-61, instance=Part-13-1, generate
 1,  3,  1
*Nset, nset=Set-61, instance=Part-21-1, generate
 1,  3,  1
*Nset, nset=Set-61, instance=Part-29-1, generate
 1,  3,  1
*Nset, nset=Set-61, instance=Part-7-1, generate
 1,  3,  1
** ... 20 like lines cut
*Nset, nset=Wire-1-4-2-Set-1, instance=Part-1-1
 4,
*Nset, nset=Wire-1-4-2-Set-1, instance=Part-4-1
 6,
*Elset, elset=Wire-1-4-2-Set-1
 1,
*Nset, nset=Wire-2-1-2-Set-1, instance=Part-2-1
 4,
*Nset, nset=Wire-2-1-2-Set-1, instance=Part-1-1
 6,
*Elset, elset=Wire-2-1-2-Set-1
 3,
*Nset, nset=Wire-2-7-2-Set-1, instance=Part-2-1
 6,
*Nset, nset=Wire-2-7-2-Set-1, instance=Part-7-1
 6,
*Elset, elset=Wire-2-7-2-Set-1
 5,
*Nset, nset=Wire-2-13-2-Set-1, instance=Part-2-1
 4,
*Nset, nset=Wire-2-13-2-Set-1, instance=Part-13-1
 6,
*Elset, elset=Wire-2-13-2-Set-1
 4,
*Nset, nset=Wire-3-2-2-Set-1, instance=Part-3-1
 4,
*Nset, nset=Wire-3-2-2-Set-1, instance=Part-2-1
 6,
*Elset, elset=Wire-3-2-2-Set-1
 6,
*Nset, nset=Wire-3-8-2-Set-1, instance=Part-3-1
 4,
*Nset, nset=Wire-3-8-2-Set-1, instance=Part-8-1
 4,
*Elset, elset=Wire-3-8-2-Set-1
 7,
*Nset, nset=Wire-4-3-2-Set-1, instance=Part-4-1
 4,
*Nset, nset=Wire-4-3-2-Set-1, instance=Part-3-1
 6,
*Elset, elset=Wire-4-3-2-Set-1
 8,
*Nset, nset=Wire-5-1-2-Set-1, instance=Part-5-1
 4,
*Nset, nset=Wire-5-1-2-Set-1, instance=Part-1-1
 8,
*Elset, elset=Wire-5-1-2-Set-1
 37,
*Nset, nset=Wire-5-2-2-Set-1, instance=Part-5-1
 8,
*Nset, nset=Wire-5-2-2-Set-1, instance=Part-2-1
 8,
*Elset, elset=Wire-5-2-2-Set-1
 38,
*Nset, nset=Wire-5-3-2-Set-1, instance=Part-5-1
 6,
*Nset, nset=Wire-5-3-2-Set-1, instance=Part-3-1
 8,
*Elset, elset=Wire-5-3-2-Set-1
 39,
*Nset, nset=Wire-5-4-2-Set-1, instance=Part-5-1
 2,
*Nset, nset=Wire-5-4-2-Set-1, instance=Part-4-1
 8,
*Elset, elset=Wire-5-4-2-Set-1
 40,
*Nset, nset=Wire-6-9-2-Set-1, instance=Part-6-1
 4,
*Nset, nset=Wire-6-9-2-Set-1, instance=Part-9-1
 6,
*Elset, elset=Wire-6-9-2-Set-1
 9,
*Nset, nset=Wire-7-6-2-Set-1, instance=Part-7-1
 4,
*Nset, nset=Wire-7-6-2-Set-1, instance=Part-6-1
 6,
*Elset, elset=Wire-7-6-2-Set-1
 11,
*Nset, nset=Wire-7-18-2-Set-1, instance=Part-7-1
 4,
*Nset, nset=Wire-7-18-2-Set-1, instance=Part-18-1
 6,
*Elset, elset=Wire-7-18-2-Set-1
 12,
*Nset, nset=Wire-8-7-2-Set-1, instance=Part-8-1
 4,
*Nset, nset=Wire-8-7-2-Set-1, instance=Part-7-1
 6,
*Elset, elset=Wire-8-7-2-Set-1
 13,
*Nset, nset=Wire-9-8-2-Set-1, instance=Part-9-1
 4,
*Nset, nset=Wire-9-8-2-Set-1, instance=Part-8-1
 6,
*Elset, elset=Wire-9-8-2-Set-1
 14,
*Nset, nset=Wire-10-6-2-Set-1, instance=Part-10-1
 4,
*Nset, nset=Wire-10-6-2-Set-1, instance=Part-6-1
 8,
*Elset, elset=Wire-10-6-2-Set-1
 41,
*Nset, nset=Wire-10-7-2-Set-1, instance=Part-10-1
 8,
*Nset, nset=Wire-10-7-2-Set-1, instance=Part-7-1
 8,
*Elset, elset=Wire-10-7-2-Set-1
 42,
*Nset, nset=Wire-10-8-2-Set-1, instance=Part-10-1
 6,
*Nset, nset=Wire-10-8-2-Set-1, instance=Part-8-1
 8,
*Elset, elset=Wire-10-8-2-Set-1
 43,
*Nset, nset=Wire-10-9-2-Set-1, instance=Part-10-1
 2,
*Nset, nset=Wire-10-9-2-Set-1, instance=Part-9-1
 8,
*Elset, elset=Wire-10-9-2-Set-1
 44,
*Nset, nset=Wire-11-14-2-Set-1, instance=Part-11-1
 4,
*Nset, nset=Wire-11-14-2-Set-1, instance=Part-14-1
 6,
*Elset, elset=Wire-11-14-2-Set-1
 15,
*Nset, nset=Wire-12-11-2-Set-1, instance=Part-12-1
 4,
*Nset, nset=Wire-12-11-2-Set-1, instance=Part-11-1
 6,
*Elset, elset=Wire-12-11-2-Set-1
 17,
*Nset, nset=Wire-12-23-2-Set-1, instance=Part-12-1
 4,
*Nset, nset=Wire-12-23-2-Set-1, instance=Part-23-1
 6,
*Elset, elset=Wire-12-23-2-Set-1
 18,
*Nset, nset=Wire-13-12-2-Set-1, instance=Part-13-1
 4,
*Nset, nset=Wire-13-12-2-Set-1, instance=Part-12-1
 6,
*Elset, elset=Wire-13-12-2-Set-1
 19,
*Nset, nset=Wire-14-1-2-Set-1, instance=Part-14-1
 4,
*Nset, nset=Wire-14-1-2-Set-1, instance=Part-1-1
 6,
*Elset, elset=Wire-14-1-2-Set-1
 2,
*Nset, nset=Wire-14-13-2-Set-1, instance=Part-14-1
 4,
*Nset, nset=Wire-14-13-2-Set-1, instance=Part-13-1
 6,
*Elset, elset=Wire-14-13-2-Set-1
 20,
*Nset, nset=Wire-15-11-2-Set-1, instance=Part-15-1
 4,
*Nset, nset=Wire-15-11-2-Set-1, instance=Part-11-1
 8,
*Elset, elset=Wire-15-11-2-Set-1
 45,
*Nset, nset=Wire-15-12-2-Set-1, instance=Part-15-1
 8,
*Nset, nset=Wire-15-12-2-Set-1, instance=Part-12-1
 8,
*Elset, elset=Wire-15-12-2-Set-1
 46,
*Nset, nset=Wire-15-13-2-Set-1, instance=Part-15-1
 6,
*Nset, nset=Wire-15-13-2-Set-1, instance=Part-13-1
 8,
*Elset, elset=Wire-15-13-2-Set-1
 47,
*Nset, nset=Wire-15-14-2-Set-1, instance=Part-15-1
 2,
*Nset, nset=Wire-15-14-2-Set-1, instance=Part-14-1
 8,
*Elset, elset=Wire-15-14-2-Set-1
 48,
*Nset, nset=Wire-16-19-2-Set-1, instance=Part-16-1
 4,
*Nset, nset=Wire-16-19-2-Set-1, instance=Part-19-1
 6,
*Elset, elset=Wire-16-19-2-Set-1
 21,
*Nset, nset=Wire-17-16-2-Set-1, instance=Part-17-1
 4,
*Nset, nset=Wire-17-16-2-Set-1, instance=Part-16-1
 6,
*Elset, elset=Wire-17-16-2-Set-1
 23,
*Nset, nset=Wire-17-28-2-Set-1, instance=Part-17-1
 4,
*Nset, nset=Wire-17-28-2-Set-1, instance=Part-28-1
 6,
*Elset, elset=Wire-17-28-2-Set-1
 24,
*Nset, nset=Wire-18-17-2-Set-1, instance=Part-18-1
 4,
*Nset, nset=Wire-18-17-2-Set-1, instance=Part-17-1
 6,
*Elset, elset=Wire-18-17-2-Set-1
 25,
*Nset, nset=Wire-19-6-2-Set-1, instance=Part-19-1
 4,
*Nset, nset=Wire-19-6-2-Set-1, instance=Part-6-1
 6,
*Elset, elset=Wire-19-6-2-Set-1
 10,
*Nset, nset=Wire-19-18-2-Set-1, instance=Part-19-1
 4,
*Nset, nset=Wire-19-18-2-Set-1, instance=Part-18-1
 6,
*Elset, elset=Wire-19-18-2-Set-1
 26,
*Nset, nset=Wire-20-16-2-Set-1, instance=Part-20-1
 4,
*Nset, nset=Wire-20-16-2-Set-1, instance=Part-16-1
 8,
*Elset, elset=Wire-20-16-2-Set-1
 49,
*Nset, nset=Wire-20-17-2-Set-1, instance=Part-20-1
 8,
*Nset, nset=Wire-20-17-2-Set-1, instance=Part-17-1
 8,
*Elset, elset=Wire-20-17-2-Set-1
 50,
*Nset, nset=Wire-20-18-2-Set-1, instance=Part-20-1
 6,
*Nset, nset=Wire-20-18-2-Set-1, instance=Part-18-1
 8,
*Elset, elset=Wire-20-18-2-Set-1
 51,
*Nset, nset=Wire-20-19-2-Set-1, instance=Part-20-1
 2,
*Nset, nset=Wire-20-19-2-Set-1, instance=Part-19-1
 8,
*Elset, elset=Wire-20-19-2-Set-1
 52,
*Nset, nset=Wire-21-24-2-Set-1, instance=Part-21-1
 4,
*Nset, nset=Wire-21-24-2-Set-1, instance=Part-24-1
 6,
*Elset, elset=Wire-21-24-2-Set-1
 27,
*Nset, nset=Wire-22-21-2-Set-1, instance=Part-22-1
 4,
*Nset, nset=Wire-22-21-2-Set-1, instance=Part-21-1
 6,
*Elset, elset=Wire-22-21-2-Set-1
 28,
*Nset, nset=Wire-23-22-2-Set-1, instance=Part-23-1
 4,
*Nset, nset=Wire-23-22-2-Set-1, instance=Part-22-1
 6,
*Elset, elset=Wire-23-22-2-Set-1
 29,
*Nset, nset=Wire-24-11-2-Set-1, instance=Part-24-1
 4,
*Nset, nset=Wire-24-11-2-Set-1, instance=Part-11-1
 6,
*Elset, elset=Wire-24-11-2-Set-1
 16,
*Nset, nset=Wire-24-23-2-Set-1, instance=Part-24-1
 4,
*Nset, nset=Wire-24-23-2-Set-1, instance=Part-23-1
 6,
*Elset, elset=Wire-24-23-2-Set-1
 30,
*Nset, nset=Wire-25-21-2-Set-1, instance=Part-25-1
 4,
*Nset, nset=Wire-25-21-2-Set-1, instance=Part-21-1
 8,
*Elset, elset=Wire-25-21-2-Set-1
 53,
*Nset, nset=Wire-25-22-2-Set-1, instance=Part-25-1
 8,
*Nset, nset=Wire-25-22-2-Set-1, instance=Part-22-1
 8,
*Elset, elset=Wire-25-22-2-Set-1
 54,
*Nset, nset=Wire-25-23-2-Set-1, instance=Part-25-1
 6,
*Nset, nset=Wire-25-23-2-Set-1, instance=Part-23-1
 8,
*Elset, elset=Wire-25-23-2-Set-1
 55,
*Nset, nset=Wire-25-24-2-Set-1, instance=Part-25-1
 2,
*Nset, nset=Wire-25-24-2-Set-1, instance=Part-24-1
 8,
*Elset, elset=Wire-25-24-2-Set-1
 56,
*Nset, nset=Wire-26-29-2-Set-1, instance=Part-26-1
 4,
*Nset, nset=Wire-26-29-2-Set-1, instance=Part-29-1
 6,
*Elset, elset=Wire-26-29-2-Set-1
 31,
*Nset, nset=Wire-27-22-2-Set-1, instance=Part-27-1
 6,
*Nset, nset=Wire-27-22-2-Set-1, instance=Part-22-1
 6,
*Elset, elset=Wire-27-22-2-Set-1
 33,
*Nset, nset=Wire-27-26-2-Set-1, instance=Part-27-1
 4,
*Nset, nset=Wire-27-26-2-Set-1, instance=Part-26-1
 6,
*Elset, elset=Wire-27-26-2-Set-1
 32,
*Nset, nset=Wire-28-23-2-Set-1, instance=Part-28-1
 4,
*Nset, nset=Wire-28-23-2-Set-1, instance=Part-23-1
 4,
*Elset, elset=Wire-28-23-2-Set-1
 35,
*Nset, nset=Wire-28-27-2-Set-1, instance=Part-28-1
 4,
*Nset, nset=Wire-28-27-2-Set-1, instance=Part-27-1
 6,
*Elset, elset=Wire-28-27-2-Set-1
 34,
*Nset, nset=Wire-29-16-2-Set-1, instance=Part-29-1
 4,
*Nset, nset=Wire-29-16-2-Set-1, instance=Part-16-1
 6,
*Elset, elset=Wire-29-16-2-Set-1
 22,
*Nset, nset=Wire-29-28-2-Set-1, instance=Part-29-1
 4,
*Nset, nset=Wire-29-28-2-Set-1, instance=Part-28-1
 6,
*Elset, elset=Wire-29-28-2-Set-1
 36,
*Nset, nset=Wire-30-26-2-Set-1, instance=Part-30-1
 4,
*Nset, nset=Wire-30-26-2-Set-1, instance=Part-26-1
 8,
*Elset, elset=Wire-30-26-2-Set-1
 57,
*Nset, nset=Wire-30-27-2-Set-1, instance=Part-30-1
 8,
*Nset, nset=Wire-30-27-2-Set-1, instance=Part-27-1
 8,
*Elset, elset=Wire-30-27-2-Set-1
 58,
*Nset, nset=Wire-30-28-2-Set-1, instance=Part-30-1
 6,
*Nset, nset=Wire-30-28-2-Set-1, instance=Part-28-1
 8,
*Elset, elset=Wire-30-28-2-Set-1
 59,
*Nset, nset=Wire-30-29-2-Set-1, instance=Part-30-1
 2,
*Nset, nset=Wire-30-29-2-Set-1, instance=Part-29-1
 8,
*Elset, elset=Wire-30-29-2-Set-1
 60,
*Orientation, name=Part-1-1-Datum-csys-1-B
          0.,           0.,           1., 0.555570233019602, 0.831469612302545,           0.
1, 0.
*Orientation, name=Part-4-1-Datum-csys-4-B
          0.,           0.,           1., -0.831469612302545, 0.555570233019602,           0.
1, 0.
*Orientation, name=Part-14-1-Datum-csys-14-B
          0.,           0.,           1., -0.264126422950409, 0.964488067681204,           0.
1, 0.
*Orientation, name=Part-2-1-Datum-csys-2-B
          0.,           0.,           1., 0.831469612302545, -0.555570233019602,           0.
1, 0.
*Orientation, name=Part-13-1-Datum-csys-13-B
          0.,           0.,           1., -0.613114600374718, -0.789993978969049,           0.
1, 0.
*Orientation, name=Part-7-1-Datum-csys-7-B
          0.,           0.,           1., -0.831469612302545, -0.555570233019602,           0.
1, 0.
*Orientation, name=Part-3-1-Datum-csys-3-B
          0.,           0.,           1., -0.555570233019602, -0.831469612302545,           0.
1, 0.
*Orientation, name=Part-8-1-Datum-csys-8-B
          0.,           0.,           1., 0.555570233019602, -0.831469612302545,           0.
1, 0.
*Orientation, name=Part-6-1-Datum-csys-6-B
          0.,           0.,           1., -0.555570233019602, 0.831469612302545,           0.
1, 0.
*Orientation, name=Part-9-1-Datum-csys-9-B
          0.,           0.,           1., 0.831469612302545, 0.555570233019602,           0.
1, 0.
*Orientation, name=Part-19-1-Datum-csys-19-B
          0.,           0.,           1., 0.264126422950409, 0.964488067681204,           0.
1, 0.
*Orientation, name=Part-18-1-Datum-csys-18-B
          0.,           0.,           1., 0.613114600374718, -0.789993978969049,           0.
1, 0.
*Orientation, name=Part-11-1-Datum-csys-11-B
          0.,           0.,           1., 0.613114600374718, 0.789993978969049,           0.
1, 0.
*Orientation, name=Part-24-1-Datum-csys-24-B
          0.,           0.,           1., -0.831469612302545, 0.555570233019602,           0.
1, 0.
*Orientation, name=Part-12-1-Datum-csys-12-B
          0.,           0.,           1., 0.264126422950408, -0.964488067681204,           0.
1, 0.
*Orientation, name=Part-23-1-Datum-csys-23-B
          0.,           0.,           1., -0.555570233019602, -0.831469612302545,           0.
1, 0.
*Orientation, name=Part-16-1-Datum-csys-16-B
          0.,           0.,           1., -0.613114600374718, 0.789993978969049,           0.
1, 0.
*Orientation, name=Part-29-1-Datum-csys-29-B
          0.,           0.,           1., 0.831469612302545, 0.555570233019602,           0.
1, 0.
*Orientation, name=Part-17-1-Datum-csys-17-B
          0.,           0.,           1., -0.264126422950408, -0.964488067681204,           0.
1, 0.
*Orientation, name=Part-28-1-Datum-csys-28-B
          0.,           0.,           1., 0.555570233019602, -0.831469612302545,           0.
** ... 16 like lines cut
*Orientation, name=Part-1-1-Datum-csys-1-A
0.555570233019602, 0.831469612302545,           0.,           0.,           0.,           1.
1, 0.
*Orientation, name=Part-5-1-Datum-csys-5-A
0.831469612302545, -0.555570233019602,           0., 0.555570233019602, 0.831469612302545,           0.
1, 0.
*Orientation, name=Part-2-1-Datum-csys-2-A
0.831469612302545, -0.555570233019602,           0.,           0.,           0.,           1.
1, 0.
*Orientation, name=Part-3-1-Datum-csys-3-A
-0.555570233019602, -0.831469612302545,           0.,           0.,           0.,           1.
1, 0.
*Orientation, name=Part-4-1-Datum-csys-4-A
-0.831469612302545, 0.555570233019602,           0.,           0.,           0.,           1.
1, 0.
*Orientation, name=Part-10-1-Datum-csys-10-B
-0.555570233019602, 0.831469612302545,           0., -0.831469612302545, -0.555570233019602,           0.
1, 0.
*Orientation, name=Part-6-1-Datum-csys-6-A
-0.555570233019602, 0.831469612302545,           0.,           0.,           0.,           1.
1, 0.
*Orientation, name=Part-10-1-Datum-csys-10-A
-0.831469612302545, -0.555570233019602,           0., -0.555570233019602, 0.831469612302545,           0.
1, 0.
*Orientation, name=Part-7-1-Datum-csys-7-A
-0.831469612302545, -0.555570233019602,           0.,           0.,           0.,           1.
1, 0.
*Orientation, name=Part-8-1-Datum-csys-8-A
0.555570233019602, -0.831469612302545,           0.,           0.,           0.,           1.
1, 0.
*Orientation, name=Part-9-1-Datum-csys-9-A
0.831469612302545, 0.555570233019602,           0.,           0.,           0.,           1.
1, 0.
*Orientation, name=Part-15-1-Datum-csys-15-B
0.613114600374718, 0.789993978969049,           0., 0.789993978969049, -0.613114600374718,           0.
1, 0.
*Orientation, name=Part-11-1-Datum-csys-11-A
0.613114600374718, 0.789993978969049,           0.,           0.,           0.,           1.
1, 0.
*Orientation, name=Part-15-1-Datum-csys-15-A
0.264126422950409, -0.964488067681204,           0., 0.964488067681204, 0.264126422950409,           0.
1, 0.
*Orientation, name=Part-12-1-Datum-csys-12-A
0.264126422950408, -0.964488067681204,           0.,           0.,           0.,           1.
1, 0.
*Orientation, name=Part-13-1-Datum-csys-13-A
-0.613114600374718, -0.789993978969049,           0.,           0.,           0.,           1.
1, 0.
*Orientation, name=Part-14-1-Datum-csys-14-A
-0.264126422950409, 0.964488067681204,           0.,           0.,           0.,           1.
1, 0.
*Orientation, name=Part-20-1-Datum-csys-20-B
-0.613114600374718, 0.789993978969049,           0., -0.789993978969049, -0.613114600374718,           0.
1, 0.
*Orientation, name=Part-16-1-Datum-csys-16-A
-0.613114600374718, 0.789993978969049,           0.,           0.,           0.,           1.
1, 0.
*Orientation, name=Part-20-1-Datum-csys-20-A
-0.264126422950409, -0.964488067681204,           0., -0.964488067681204, 0.264126422950409,           0.
1, 0.
*Orientation, name=Part-17-1-Datum-csys-17-A
-0.264126422950408, -0.964488067681204,           0.,           0.,           0.,           1.
1, 0.
*Orientation, name=Part-18-1-Datum-csys-18-A
0.613114600374718, -0.789993978969049,           0.,           0.,           0.,           1.
1, 0.
*Orientation, name=Part-19-1-Datum-csys-19-A
0.264126422950409, 0.964488067681204,           0.,           0.,           0.,           1.
1, 0.
*Orientation, name=Part-25-1-Datum-csys-25-B
0.555570233019602, 0.831469612302545,           0., 0.831469612302545, -0.555570233019602,           0.
1, 0.
*Orientation, name=Part-21-1-Datum-csys-21-A
0.555570233019602, 0.831469612302545,           0.,           0.,           0.,           1.
1, 0.
*Orientation, name=Part-25-1-Datum-csys-25-A
0.831469612302545, -0.555570233019602,           0., 0.555570233019602, 0.831469612302545,           0.
1, 0.
*Orientation, name=Part-22-1-Datum-csys-22-A
0.831469612302546, -0.555570233019602,           0.,           0.,           0.,           1.
1, 0.
*Orientation, name=Part-23-1-Datum-csys-23-A
-0.555570233019602, -0.831469612302545,           0.,           0.,           0.,           1.
1, 0.
*Orientation, name=Part-24-1-Datum-csys-24-A
-0.831469612302545, 0.555570233019602,           0.,           0.,           0.,           1.
1, 0.
*Orientation, name=Part-30-1-Datum-csys-30-B
-0.555570233019602, 0.831469612302545,           0., -0.831469612302545, -0.555570233019602,           0.
1, 0.
*Orientation, name=Part-26-1-Datum-csys-26-A
-0.555570233019602, 0.831469612302545,           0.,           0.,           0.,           1.
1, 0.
*Orientation, name=Part-30-1-Datum-csys-30-A
-0.831469612302545, -0.555570233019602,           0., -0.555570233019602, 0.831469612302545,           0.
1, 0.
*Orientation, name=Part-27-1-Datum-csys-27-A
-0.831469612302546, -0.555570233019602,           0.,           0.,           0.,           1.
1, 0.
*Orientation, name=Part-28-1-Datum-csys-28-A
0.555570233019602, -0.831469612302545,           0.,           0.,           0.,           1.
1, 0.
*Orientation, name=Part-29-1-Datum-csys-29-A
0.831469612302545, 0.555570233019602,           0.,           0.,           0.,           1.
1, 0.
*End Assembly
*Connector Behavior, name=ConnSect-1
*Connector Elasticity, component=4
1.,
** 
** MATERIALS
** 
*Material, name=Material-1
*Density
2000.,
*Elastic
 4e+08, 0.3
** ----------------------------------------------------------------
** 
** STEP: Step-1
** 
*Step, name=Step-1, nlgeom=YES
*Dynamic, Explicit
, 1.
*Bulk Viscosity
0.06, 1.2
** 
** BOUNDARY CONDITIONS
** 
** Name: BC-1 Type: Symmetry/Antisymmetry/Encastre
*Boundary
Set-61, ZSYMM
** Name: BC-2 Type: Symmetry/Antisymmetry/Encastre
*Boundary
Set-62, PINNED
** 
** LOADS
** 
** Name: Load-1   Type: Concentrated force
*Cload
Set-63, 2, 1.
** 
** OUTPUT REQUESTS
** 
*Restart, write, number interval=1, time marks=NO
** 
** FIELD OUTPUT: F-Output-1
** 
*Output, field, variable=PRESELECT
** 
** HISTORY OUTPUT: H-Output-1
** 
*Output, history, variable=PRESELECT
*End Step
