*Heading
** Job name: CorrectSetup Model name: CorrectSetup
** Generated by: Abaqus/CAE 2024
*Preprint, echo=NO, model=NO, history=NO, contact=NO
**
** PARTS
**
*Part, name=PART-1
*Node
      1, 0.000157138988, 0.000235175117, 0.000282842724
      2, 0.00214756629, 0.0032140601, 0.000282842724
      3, 0.00413799332, 0.00619294494, 0.000282842724
      4, 0.00612842059, 0.00917182956, 0.000282842724
      5, 0.000157138988, 0.000235175117, 0.00386551698
      6, 0.00214756629, 0.0032140601, 0.00386551698
      7, 0.00413799332, 0.00619294494, 0.00386551698
      8, 0.00612842059, 0.00917182956, 0.00386551698
      9, 0.000157138988, 0.000235175117, 0.00744819129
     10, 0.00214756629, 0.0032140601, 0.00744819129
     11, 0.00413799332, 0.00619294494, 0.00744819129
     12, 0.00612842059, 0.00917182956, 0.00744819129
     13, 0.000157138988, 0.000235175117, 0.0110308658
     14, 0.00214756629, 0.0032140601, 0.0110308658
     15, 0.00413799332, 0.00619294494, 0.0110308658
     16, 0.00612842059, 0.00917182956, 0.0110308658
*Element, type=S4
1,  1,  2,  6,  5
2,  2,  3,  7,  6
3,  3,  4,  8,  7
4,  5,  6, 10,  9
5,  6,  7, 11, 10
6,  7,  8, 12, 11
7,  9, 10, 14, 13
8, 10, 11, 15, 14
9, 11, 12, 16, 15
*Elset, elset=SET-1, generate
 1,  9,  1
** Section: Section-1-SET-1
*Shell Section, elset=SET-1, material=MATERIAL-1
0.001, 5
*End Part
**  
*Part, name=PART-2
*Node
      1, 0.00652073463, 0.00924986601, 0.000282842724
      2, 0.00949961971, 0.00725943875, 0.000282842724
      3, 0.0124785043, 0.00526901148, 0.000282842724
      4, 0.0154573889, 0.00327858422, 0.000282842724
      5, 0.00652073463, 0.00924986601, 0.00386551698
      6, 0.00949961971, 0.00725943875, 0.00386551698
      7, 0.0124785043, 0.00526901148, 0.00386551698
      8, 0.0154573889, 0.00327858422, 0.00386551698
      9, 0.00652073463, 0.00924986601, 0.00744819129
     10, 0.00949961971, 0.00725943875, 0.00744819129
     11, 0.0124785043, 0.00526901148, 0.00744819129
     12, 0.0154573889, 0.00327858422, 0.00744819129
     13, 0.00652073463, 0.00924986601, 0.0110308658
     14, 0.00949961971, 0.00725943875, 0.0110308658
     15, 0.0124785043, 0.00526901148, 0.0110308658
     16, 0.0154573889, 0.00327858422, 0.0110308658
*Element, type=S4
1,  1,  2,  6,  5
2,  2,  3,  7,  6
3,  3,  4,  8,  7
4,  5,  6, 10,  9
5,  6,  7, 11, 10
6,  7,  8, 12, 11
7,  9, 10, 14, 13
8, 10, 11, 15, 14
9, 11, 12, 16, 15
*Elset, elset=SET-1, generate
 1,  9,  1
** Section: Section-2-SET-1
*Shell Section, elset=SET-1, material=MATERIAL-1
0.001, 5
*End Part
**  
*Part, name=PART-3
*Node
      1, 0.0155354254, 0.00288626994, 0.000282842724
      2, 0.0135449981, -9.26148277e-05, 0.000282842724
      3, 0.0115545709, -0.00307149976, 0.000282842724
      4, 0.00956414361, -0.0060503846, 0.000282842724
      5, 0.0155354254, 0.00288626994, 0.00386551698
      6, 0.0135449981, -9.26148277e-05, 0.00386551698
      7, 0.0115545709, -0.00307149976, 0.00386551698
      8, 0.00956414361, -0.0060503846, 0.00386551698
      9, 0.0155354254, 0.00288626994, 0.00744819129
     10, 0.0135449981, -9.26148277e-05, 0.00744819129
     11, 0.0115545709, -0.00307149976, 0.00744819129
     12, 0.00956414361, -0.0060503846, 0.00744819129
     13, 0.0155354254, 0.00288626994, 0.0110308658
     14, 0.0135449981, -9.26148277e-05, 0.0110308658
     15, 0.0115545709, -0.00307149976, 0.0110308658
     16, 0.00956414361, -0.0060503846, 0.0110308658
*Element, type=S4
1,  1,  2,  6,  5
2,  2,  3,  7,  6
3,  3,  4,  8,  7
4,  5,  6, 10,  9
5,  6,  7, 11, 10
6,  7,  8, 12, 11
7,  9, 10, 14, 13
8, 10, 11, 15, 14
9, 11, 12, 16, 15
*Elset, elset=SET-1, generate
 1,  9,  1
** Section: Section-3-SET-1
*Shell Section, elset=SET-1, material=MATERIAL-1
0.001, 5
*End Part
**  
*Part, name=PART-4
*Node
      1, 0.00917182956, -0.00612842059, 0.000282842724
      2, 0.00619294494, -0.00413799332, 0.000282842724
      3, 0.0032140601, -0.00214756629, 0.000282842724
      4, 0.000235175117, -0.000157138988, 0.000282842724
      5, 0.00917182956, -0.00612842059, 0.00386551698
      6, 0.00619294494, -0.00413799332, 0.00386551698
      7, 0.0032140601, -0.00214756629, 0.00386551698
      8, 0.000235175117, -0.000157138988, 0.00386551698
      9, 0.00917182956, -0.00612842059, 0.00744819129
     10, 0.00619294494, -0.00413799332, 0.00744819129
     11, 0.0032140601, -0.00214756629, 0.00744819129
     12, 0.000235175117, -0.000157138988, 0.00744819129
     13, 0.00917182956, -0.00612842059, 0.0110308658
     14, 0.00619294494, -0.00413799332, 0.0110308658
     15, 0.0032140601, -0.00214756629, 0.0110308658
     16, 0.000235175117, -0.000157138988, 0.0110308658
*Element, type=S4
1,  1,  2,  6,  5
2,  2,  3,  7,  6
3,  3,  4,  8,  7
4,  5,  6, 10,  9
5,  6,  7, 11, 10
6,  7,  8, 12, 11
7,  9, 10, 14, 13
8, 10, 11, 15, 14
9, 11, 12, 16, 15
*Elset, elset=SET-1, generate
 1,  9,  1
** Section: Section-4-SET-1
*Shell Section, elset=SET-1, material=MATERIAL-1
0.001, 5
*End Part
**  
*Part, name=PART-5
*Node
      1, 0.000392314105, 7.80361297e-05, 0.0113137085
      2, 0.00337119889, -0.00191239105, 0.0113137085
      3, 0.00635008374, -0.00390281831, 0.0113137085
      4, 0.00932896882, -0.00589324534, 0.0113137085
      5, 0.00238274131, 0.00305692106, 0.0113137085
      6, 0.00536162639, 0.0010664938, 0.0113137085
      7, 0.00834051147, -0.000923933461, 0.0113137085
      8, 0.0113193961, -0.00291436072, 0.0113137085
      9, 0.00437316857, 0.00603580568, 0.0113137085
     10, 0.00735205365, 0.00404537842, 0.0113137085
     11, 0.0103309387, 0.00205495139, 0.0113137085
     12, 0.0133098233, 6.45241671e-05, 0.0113137085
     13, 0.00636359584, 0.00901469029, 0.0113137085
     14, 0.00934248045, 0.0070242635, 0.0113137085
     15, 0.0123213651, 0.00503383623, 0.0113137085
     16, 0.0153002506, 0.00304340897, 0.0113137085
*Element, type=S4
1,  1,  2,  6,  5
2,  2,  3,  7,  6
3,  3,  4,  8,  7
4,  5,  6, 10,  9
5,  6,  7, 11, 10
6,  7,  8, 12, 11
7,  9, 10, 14, 13
8, 10, 11, 15, 14
9, 11, 12, 16, 15
*Elset, elset=SET-1, generate
 1,  9,  1
** Section: Section-5-SET-1
*Shell Section, elset=SET-1, material=MATERIAL-1
0.001, 5
*End Part
**  
*Part, name=PART-6
*Node
      1, 0.0312279891, 0.000235175117, 0.000282842724
      2, 0.0292375628, 0.0032140601, 0.000282842724
      3, 0.0272471346, 0.00619294494, 0.000282842724
      4, 0.0252567083, 0.00917182956, 0.000282842724
      5, 0.0312279891, 0.000235175117, 0.00386551698
      6, 0.0292375628, 0.0032140601, 0.00386551698
      7, 0.0272471346, 0.00619294494, 0.00386551698
      8, 0.0252567083, 0.00917182956, 0.00386551698
      9, 0.0312279891, 0.000235175117, 0.00744819129
     10, 0.0292375628, 0.0032140601, 0.00744819129
     11, 0.0272471346, 0.00619294494, 0.00744819129
     12, 0.0252567083, 0.00917182956, 0.00744819129
     13, 0.0312279891, 0.000235175117, 0.0110308658
     14, 0.0292375628, 0.0032140601, 0.0110308658
     15, 0.0272471346, 0.00619294494, 0.0110308658
     16, 0.0252567083, 0.00917182956, 0.0110308658
*Element, type=S4
1,  1,  2,  6,  5
2,  2,  3,  7,  6
3,  3,  4,  8,  7
4,  5,  6, 10,  9
5,  6,  7, 11, 10
6,  7,  8, 12, 11
7,  9, 10, 14, 13
8, 10, 11, 15, 14
9, 11, 12, 16, 15
*Elset, elset=SET-1, generate
 1,  9,  1
** Section: Section-6-SET-1
*Shell Section, elset=SET-1, material=MATERIAL-1
0.001, 5
*End Part
**  
*Part, name=PART-7
*Node
      1, 0.0248643942, 0.00924986601, 0.000282842724
      2, 0.0218855087, 0.00725943875, 0.000282842724
      3,  0.018906625, 0.00526901148, 0.000282842724
      4, 0.0159277394, 0.00327858422, 0.000282842724
      5, 0.0248643942, 0.00924986601, 0.00386551698
      6, 0.0218855087, 0.00725943875, 0.00386551698
      7,  0.018906625, 0.00526901148, 0.00386551698
      8, 0.0159277394, 0.00327858422, 0.00386551698
      9, 0.0248643942, 0.00924986601, 0.00744819129
     10, 0.0218855087, 0.00725943875, 0.00744819129
     11,  0.018906625, 0.00526901148, 0.00744819129
     12, 0.0159277394, 0.00327858422, 0.00744819129
     13, 0.0248643942, 0.00924986601, 0.0110308658
     14, 0.0218855087, 0.00725943875, 0.0110308658
     15,  0.018906625, 0.00526901148, 0.0110308658
     16, 0.0159277394, 0.00327858422, 0.0110308658
*Element, type=S4
1,  1,  2,  6,  5
2,  2,  3,  7,  6
3,  3,  4,  8,  7
4,  5,  6, 10,  9
5,  6,  7, 11, 10
6,  7,  8, 12, 11
7,  9, 10, 14, 13
8, 10, 11, 15, 14
9, 11, 12, 16, 15
*Elset, elset=SET-1, generate
 1,  9,  1
** Section: Section-7-SET-1
*Shell Section, elset=SET-1, material=MATERIAL-1
0.001, 5
*End Part
**  
*Part, name=PART-8
*Node
      1, 0.0158497039, 0.00288626994, 0.000282842724
      2, 0.0178401303, -9.26148277e-05, 0.000282842724
      3, 0.0198305584, -0.00307149976, 0.000282842724
      4, 0.0218209848, -0.0060503846, 0.000282842724
      5, 0.0158497039, 0.00288626994, 0.00386551698
      6, 0.0178401303, -9.26148277e-05, 0.00386551698
      7, 0.0198305584, -0.00307149976, 0.00386551698
      8, 0.0218209848, -0.0060503846, 0.00386551698
      9, 0.0158497039, 0.00288626994, 0.00744819129
     10, 0.0178401303, -9.26148277e-05, 0.00744819129
     11, 0.0198305584, -0.00307149976, 0.00744819129
     12, 0.0218209848, -0.0060503846, 0.00744819129
     13, 0.0158497039, 0.00288626994, 0.0110308658
     14, 0.0178401303, -9.26148277e-05, 0.0110308658
     15, 0.0198305584, -0.00307149976, 0.0110308658
     16, 0.0218209848, -0.0060503846, 0.0110308658
*Element, type=S4
1,  1,  2,  6,  5
2,  2,  3,  7,  6
3,  3,  4,  8,  7
4,  5,  6, 10,  9
5,  6,  7, 11, 10
6,  7,  8, 12, 11
7,  9, 10, 14, 13
8, 10, 11, 15, 14
9, 11, 12, 16, 15
*Elset, elset=SET-1, generate
 1,  9,  1
** Section: Section-8-SET-1
*Shell Section, elset=SET-1, material=MATERIAL-1
0.001, 5
*End Part
**  
*Part, name=PART-9
*Node
      1, 0.0222132988, -0.00612842059, 0.000282842724
      2, 0.0251921844, -0.00413799332, 0.000282842724
      3, 0.0281710699, -0.00214756629, 0.000282842724
      4, 0.0311499536, -0.000157138988, 0.000282842724
      5, 0.0222132988, -0.00612842059, 0.00386551698
      6, 0.0251921844, -0.00413799332, 0.00386551698
      7, 0.0281710699, -0.00214756629, 0.00386551698
      8, 0.0311499536, -0.000157138988, 0.00386551698
      9, 0.0222132988, -0.00612842059, 0.00744819129
     10, 0.0251921844, -0.00413799332, 0.00744819129
     11, 0.0281710699, -0.00214756629, 0.00744819129
     12, 0.0311499536, -0.000157138988, 0.00744819129
     13, 0.0222132988, -0.00612842059, 0.0110308658
     14, 0.0251921844, -0.00413799332, 0.0110308658
     15, 0.0281710699, -0.00214756629, 0.0110308658
     16, 0.0311499536, -0.000157138988, 0.0110308658
*Element, type=S4
1,  1,  2,  6,  5
2,  2,  3,  7,  6
3,  3,  4,  8,  7
4,  5,  6, 10,  9
5,  6,  7, 11, 10
6,  7,  8, 12, 11
7,  9, 10, 14, 13
8, 10, 11, 15, 14
9, 11, 12, 16, 15
*Elset, elset=SET-1, generate
 1,  9,  1
** Section: Section-9-SET-1
*Shell Section, elset=SET-1, material=MATERIAL-1
0.001, 5
*End Part
**  
*Part, name=PART-10
*Node
      1, 0.0309928153, 7.80361297e-05, 0.0113137085
      2, 0.0280139297, -0.00191239105, 0.0113137085
      3,  0.025035046, -0.00390281831, 0.0113137085
      4, 0.0220561605, -0.00589324534, 0.0113137085
      5, 0.0290023871, 0.00305692106, 0.0113137085
      6, 0.0260235034, 0.0010664938, 0.0113137085
      7, 0.0230446178, -0.000923933461, 0.0113137085
      8, 0.0200657323, -0.00291436072, 0.0113137085
      9, 0.0270119607, 0.00603580568, 0.0113137085
     10, 0.0240330752, 0.00404537842, 0.0113137085
     11, 0.0210541915, 0.00205495139, 0.0113137085
     12,  0.018075306, 6.45241671e-05, 0.0113137085
     13, 0.0250215326, 0.00901469029, 0.0113137085
     14, 0.0220426489, 0.0070242635, 0.0113137085
     15, 0.0190637633, 0.00503383623, 0.0113137085
     16, 0.0160848778, 0.00304340897, 0.0113137085
*Element, type=S4
1,  1,  2,  6,  5
2,  2,  3,  7,  6
3,  3,  4,  8,  7
4,  5,  6, 10,  9
5,  6,  7, 11, 10
6,  7,  8, 12, 11
7,  9, 10, 14, 13
8, 10, 11, 15, 14
9, 11, 12, 16, 15
*Elset, elset=SET-1, generate
 1,  9,  1
** Section: Section-10-SET-1
*Shell Section, elset=SET-1, material=MATERIAL-1
0.001, 5
*End Part
**  
*Part, name=PART-11
*Node
      1, 0.00406023767, 0.0182102956, 0.000282842724
      2, 0.00579679478, 0.0204478372, 0.000282842724
      3, 0.00753335143, 0.0226853788, 0.000282842724
      4, 0.00926990807, 0.0249229204, 0.000282842724
      5, 0.00406023767, 0.0182102956, 0.00386551698
      6, 0.00579679478, 0.0204478372, 0.00386551698
      7, 0.00753335143, 0.0226853788, 0.00386551698
      8, 0.00926990807, 0.0249229204, 0.00386551698
      9, 0.00406023767, 0.0182102956, 0.00744819129
     10, 0.00579679478, 0.0204478372, 0.00744819129
     11, 0.00753335143, 0.0226853788, 0.00744819129
     12, 0.00926990807, 0.0249229204, 0.00744819129
     13, 0.00406023767, 0.0182102956, 0.0110308658
     14, 0.00579679478, 0.0204478372, 0.0110308658
     15, 0.00753335143, 0.0226853788, 0.0110308658
     16, 0.00926990807, 0.0249229204, 0.0110308658
*Element, type=S4
1,  1,  2,  6,  5
2,  2,  3,  7,  6
3,  3,  4,  8,  7
4,  5,  6, 10,  9
5,  6,  7, 11, 10
6,  7,  8, 12, 11
7,  9, 10, 14, 13
8, 10, 11, 15, 14
9, 11, 12, 16, 15
*Elset, elset=SET-1, generate
 1,  9,  1
** Section: Section-11-SET-1
*Shell Section, elset=SET-1, material=MATERIAL-1
0.001, 5
*End Part
**  
*Part, name=PART-12
*Node
      1, 0.00946606509, 0.0248839036, 0.000282842724
      2, 0.0102141649, 0.0221521333, 0.000282842724
      3, 0.0109622637,  0.019420363, 0.000282842724
      4, 0.0117103625, 0.0166885927, 0.000282842724
      5, 0.00946606509, 0.0248839036, 0.00386551698
      6, 0.0102141649, 0.0221521333, 0.00386551698
      7, 0.0109622637,  0.019420363, 0.00386551698
      8, 0.0117103625, 0.0166885927, 0.00386551698
      9, 0.00946606509, 0.0248839036, 0.00744819129
     10, 0.0102141649, 0.0221521333, 0.00744819129
     11, 0.0109622637,  0.019420363, 0.00744819129
     12, 0.0117103625, 0.0166885927, 0.00744819129
     13, 0.00946606509, 0.0248839036, 0.0110308658
     14, 0.0102141649, 0.0221521333, 0.0110308658
     15, 0.0109622637,  0.019420363, 0.0110308658
     16, 0.0117103625, 0.0166885927, 0.0110308658
*Element, type=S4
1,  1,  2,  6,  5
2,  2,  3,  7,  6
3,  3,  4,  8,  7
4,  5,  6, 10,  9
5,  6,  7, 11, 10
6,  7,  8, 12, 11
7,  9, 10, 14, 13
8, 10, 11, 15, 14
9, 11, 12, 16, 15
*Elset, elset=SET-1, generate
 1,  9,  1
** Section: Section-12-SET-1
*Shell Section, elset=SET-1, material=MATERIAL-1
0.001, 5
*End Part
**  
*Part, name=PART-13
*Node
      1,  0.011632327, 0.0162962768, 0.000282842724
      2, 0.00989576988, 0.0140587362, 0.000282842724
      3, 0.00815921277, 0.0118211946, 0.000282842724
      4, 0.00642265612, 0.00958365295, 0.000282842724
      5,  0.011632327, 0.0162962768, 0.00386551698
      6, 0.00989576988, 0.0140587362, 0.00386551698
      7, 0.00815921277, 0.0118211946, 0.00386551698
      8, 0.00642265612, 0.00958365295, 0.00386551698
      9,  0.011632327, 0.0162962768, 0.00744819129
     10, 0.00989576988, 0.0140587362, 0.00744819129
     11, 0.00815921277, 0.0118211946, 0.00744819129
     12, 0.00642265612, 0.00958365295, 0.00744819129
     13,  0.011632327, 0.0162962768, 0.0110308658
     14, 0.00989576988, 0.0140587362, 0.0110308658
     15, 0.00815921277, 0.0118211946, 0.0110308658
     16, 0.00642265612, 0.00958365295, 0.0110308658
*Element, type=S4
1,  1,  2,  6,  5
2,  2,  3,  7,  6
3,  3,  4,  8,  7
4,  5,  6, 10,  9
5,  6,  7, 11, 10
6,  7,  8, 12, 11
7,  9, 10, 14, 13
8, 10, 11, 15, 14
9, 11, 12, 16, 15
*Elset, elset=SET-1, generate
 1,  9,  1
** Section: Section-13-SET-1
*Shell Section, elset=SET-1, material=MATERIAL-1
0.001, 5
*End Part
**  
*Part, name=PART-14
*Node
      1, 0.0062264991, 0.00962267071, 0.000282842724
      2, 0.00547839981,  0.012354441, 0.000282842724
      3, 0.00473030098, 0.0150862122, 0.000282842724
      4, 0.00398220168, 0.0178179815, 0.000282842724
      5, 0.0062264991, 0.00962267071, 0.00386551698
      6, 0.00547839981,  0.012354441, 0.00386551698
      7, 0.00473030098, 0.0150862122, 0.00386551698
      8, 0.00398220168, 0.0178179815, 0.00386551698
      9, 0.0062264991, 0.00962267071, 0.00744819129
     10, 0.00547839981,  0.012354441, 0.00744819129
     11, 0.00473030098, 0.0150862122, 0.00744819129
     12, 0.00398220168, 0.0178179815, 0.00744819129
     13, 0.0062264991, 0.00962267071, 0.0110308658
     14, 0.00547839981,  0.012354441, 0.0110308658
     15, 0.00473030098, 0.0150862122, 0.0110308658
     16, 0.00398220168, 0.0178179815, 0.0110308658
*Element, type=S4
1,  1,  2,  6,  5
2,  2,  3,  7,  6
3,  3,  4,  8,  7
4,  5,  6, 10,  9
5,  6,  7, 11, 10
6,  7,  8, 12, 11
7,  9, 10, 14, 13
8, 10, 11, 15, 14
9, 11, 12, 16, 15
*Elset, elset=SET-1, generate
 1,  9,  1
** Section: Section-14-SET-1
*Shell Section, elset=SET-1, material=MATERIAL-1
0.001, 5
*End Part
**  
*Part, name=PART-15
*Node
      1, 0.00411929796, 0.0179946311, 0.0113137085
      2, 0.00486739725, 0.0152628599, 0.0113137085
      3, 0.00561549654, 0.0125310896, 0.0113137085
      4, 0.00636359584, 0.00979931932, 0.0113137085
      5, 0.00585585507, 0.0202321727, 0.0113137085
      6, 0.00660395436, 0.0175004005, 0.0113137085
      7, 0.00735205365, 0.0147686312, 0.0113137085
      8, 0.00810015295, 0.0120368609, 0.0113137085
      9, 0.00759241171, 0.0224697143, 0.0113137085
     10, 0.00834051147,  0.019737944, 0.0113137085
     11, 0.0090886103, 0.0170061719, 0.0113137085
     12, 0.00983670913, 0.0142744025, 0.0113137085
     13, 0.00932896882, 0.0247072559, 0.0113137085
     14, 0.0100770677, 0.0219754856, 0.0113137085
     15, 0.0108251674, 0.0192437135, 0.0113137085
     16, 0.0115732662, 0.0165119432, 0.0113137085
*Element, type=S4
1,  1,  2,  6,  5
2,  2,  3,  7,  6
3,  3,  4,  8,  7
4,  5,  6, 10,  9
5,  6,  7, 11, 10
6,  7,  8, 12, 11
7,  9, 10, 14, 13
8, 10, 11, 15, 14
9, 11, 12, 16, 15
*Elset, elset=SET-1, generate
 1,  9,  1
** Section: Section-15-SET-1
*Shell Section, elset=SET-1, material=MATERIAL-1
0.001, 5
*End Part
**  
*Part, name=PART-16
*Node
      1, 0.0273248907, 0.0182102956, 0.000282842724
      2, 0.0255883336, 0.0204478372, 0.000282842724
      3, 0.0238517784, 0.0226853788, 0.000282842724
      4, 0.0221152212, 0.0249229204, 0.000282842724
      5, 0.0273248907, 0.0182102956, 0.00386551698
      6, 0.0255883336, 0.0204478372, 0.00386551698
      7, 0.0238517784, 0.0226853788, 0.00386551698
      8, 0.0221152212, 0.0249229204, 0.00386551698
      9, 0.0273248907, 0.0182102956, 0.00744819129
     10, 0.0255883336, 0.0204478372, 0.00744819129
     11, 0.0238517784, 0.0226853788, 0.00744819129
     12, 0.0221152212, 0.0249229204, 0.00744819129
     13, 0.0273248907, 0.0182102956, 0.0110308658
     14, 0.0255883336, 0.0204478372, 0.0110308658
     15, 0.0238517784, 0.0226853788, 0.0110308658
     16, 0.0221152212, 0.0249229204, 0.0110308658
*Element, type=S4
1,  1,  2,  6,  5
2,  2,  3,  7,  6
3,  3,  4,  8,  7
4,  5,  6, 10,  9
5,  6,  7, 11, 10
6,  7,  8, 12, 11
7,  9, 10, 14, 13
8, 10, 11, 15, 14
9, 11, 12, 16, 15
*Elset, elset=SET-1, generate
 1,  9,  1
** Section: Section-16-SET-1
*Shell Section, elset=SET-1, material=MATERIAL-1
0.001, 5
*End Part
**  
*Part, name=PART-17
*Node
      1, 0.0219190642, 0.0248839036, 0.000282842724
      2, 0.0211709645, 0.0221521333, 0.000282842724
      3, 0.0204228647,  0.019420363, 0.000282842724
      4, 0.0196747668, 0.0166885927, 0.000282842724
      5, 0.0219190642, 0.0248839036, 0.00386551698
      6, 0.0211709645, 0.0221521333, 0.00386551698
      7, 0.0204228647,  0.019420363, 0.00386551698
      8, 0.0196747668, 0.0166885927, 0.00386551698
      9, 0.0219190642, 0.0248839036, 0.00744819129
     10, 0.0211709645, 0.0221521333, 0.00744819129
     11, 0.0204228647,  0.019420363, 0.00744819129
     12, 0.0196747668, 0.0166885927, 0.00744819129
     13, 0.0219190642, 0.0248839036, 0.0110308658
     14, 0.0211709645, 0.0221521333, 0.0110308658
     15, 0.0204228647,  0.019420363, 0.0110308658
     16, 0.0196747668, 0.0166885927, 0.0110308658
*Element, type=S4
1,  1,  2,  6,  5
2,  2,  3,  7,  6
3,  3,  4,  8,  7
4,  5,  6, 10,  9
5,  6,  7, 11, 10
6,  7,  8, 12, 11
7,  9, 10, 14, 13
8, 10, 11, 15, 14
9, 11, 12, 16, 15
*Elset, elset=SET-1, generate
 1,  9,  1
** Section: Section-17-SET-1
*Shell Section, elset=SET-1, material=MATERIAL-1
0.001, 5
*End Part
**  
*Part, name=PART-18
*Node
      1, 0.0197528023, 0.0162962768, 0.000282842724
      2, 0.0214893594, 0.0140587362, 0.000282842724
      3, 0.0232259165, 0.0118211946, 0.000282842724
      4, 0.0249624718, 0.00958365295, 0.000282842724
      5, 0.0197528023, 0.0162962768, 0.00386551698
      6, 0.0214893594, 0.0140587362, 0.00386551698
      7, 0.0232259165, 0.0118211946, 0.00386551698
      8, 0.0249624718, 0.00958365295, 0.00386551698
      9, 0.0197528023, 0.0162962768, 0.00744819129
     10, 0.0214893594, 0.0140587362, 0.00744819129
     11, 0.0232259165, 0.0118211946, 0.00744819129
     12, 0.0249624718, 0.00958365295, 0.00744819129
     13, 0.0197528023, 0.0162962768, 0.0110308658
     14, 0.0214893594, 0.0140587362, 0.0110308658
     15, 0.0232259165, 0.0118211946, 0.0110308658
     16, 0.0249624718, 0.00958365295, 0.0110308658
*Element, type=S4
1,  1,  2,  6,  5
2,  2,  3,  7,  6
3,  3,  4,  8,  7
4,  5,  6, 10,  9
5,  6,  7, 11, 10
6,  7,  8, 12, 11
7,  9, 10, 14, 13
8, 10, 11, 15, 14
9, 11, 12, 16, 15
*Elset, elset=SET-1, generate
 1,  9,  1
** Section: Section-18-SET-1
*Shell Section, elset=SET-1, material=MATERIAL-1
0.001, 5
*End Part
**  
*Part, name=PART-19
*Node
      1, 0.0251586307, 0.00962267071, 0.000282842724
      2, 0.0259067286,  0.012354441, 0.000282842724
      3, 0.0266548283, 0.0150862122, 0.000282842724
      4, 0.0274029281, 0.0178179815, 0.000282842724
      5, 0.0251586307, 0.00962267071, 0.00386551698
      6, 0.0259067286,  0.012354441, 0.00386551698
      7, 0.0266548283, 0.0150862122, 0.00386551698
      8, 0.0274029281, 0.0178179815, 0.00386551698
      9, 0.0251586307, 0.00962267071, 0.00744819129
     10, 0.0259067286,  0.012354441, 0.00744819129
     11, 0.0266548283, 0.0150862122, 0.00744819129
     12, 0.0274029281, 0.0178179815, 0.00744819129
     13, 0.0251586307, 0.00962267071, 0.0110308658
     14, 0.0259067286,  0.012354441, 0.0110308658
     15, 0.0266548283, 0.0150862122, 0.0110308658
     16, 0.0274029281, 0.0178179815, 0.0110308658
*Element, type=S4
1,  1,  2,  6,  5
2,  2,  3,  7,  6
3,  3,  4,  8,  7
4,  5,  6, 10,  9
5,  6,  7, 11, 10
6,  7,  8, 12, 11
7,  9, 10, 14, 13
8, 10, 11, 15, 14
9, 11, 12, 16, 15
*Elset, elset=SET-1, generate
 1,  9,  1
** Section: Section-19-SET-1
*Shell Section, elset=SET-1, material=MATERIAL-1
0.001, 5
*End Part
**  
*Part, name=PART-20
*Node
      1,   0.02726583, 0.0179946311, 0.0113137085
      2, 0.0265177321, 0.0152628599, 0.0113137085
      3, 0.0257696323, 0.0125310896, 0.0113137085
      4, 0.0250215326, 0.00979931932, 0.0113137085
      5, 0.0255292747, 0.0202321727, 0.0113137085
      6,  0.024781175, 0.0175004005, 0.0113137085
      7, 0.0240330752, 0.0147686312, 0.0113137085
      8, 0.0232849754, 0.0120368609, 0.0113137085
      9, 0.0237927176, 0.0224697143, 0.0113137085
     10, 0.0230446178,  0.019737944, 0.0113137085
     11, 0.0222965181, 0.0170061719, 0.0113137085
     12, 0.0215484202, 0.0142744025, 0.0113137085
     13, 0.0220561605, 0.0247072559, 0.0113137085
     14, 0.0213080607, 0.0219754856, 0.0113137085
     15,  0.020559961, 0.0192437135, 0.0113137085
     16, 0.0198118631, 0.0165119432, 0.0113137085
*Element, type=S4
1,  1,  2,  6,  5
2,  2,  3,  7,  6
3,  3,  4,  8,  7
4,  5,  6, 10,  9
5,  6,  7, 11, 10
6,  7,  8, 12, 11
7,  9, 10, 14, 13
8, 10, 11, 15, 14
9, 11, 12, 16, 15
*Elset, elset=SET-1, generate
 1,  9,  1
** Section: Section-20-SET-1
*Shell Section, elset=SET-1, material=MATERIAL-1
0.001, 5
*End Part
**  
*Part, name=PART-21
*Node
      1, 0.000157138988,  0.031620305, 0.000282842724
      2, 0.00214756629, 0.0345991887, 0.000282842724
      3, 0.00413799332, 0.0375780724, 0.000282842724
      4, 0.00612842059, 0.0405569598, 0.000282842724
      5, 0.000157138988,  0.031620305, 0.00386551698
      6, 0.00214756629, 0.0345991887, 0.00386551698
      7, 0.00413799332, 0.0375780724, 0.00386551698
      8, 0.00612842059, 0.0405569598, 0.00386551698
      9, 0.000157138988,  0.031620305, 0.00744819129
     10, 0.00214756629, 0.0345991887, 0.00744819129
     11, 0.00413799332, 0.0375780724, 0.00744819129
     12, 0.00612842059, 0.0405569598, 0.00744819129
     13, 0.000157138988,  0.031620305, 0.0110308658
     14, 0.00214756629, 0.0345991887, 0.0110308658
     15, 0.00413799332, 0.0375780724, 0.0110308658
     16, 0.00612842059, 0.0405569598, 0.0110308658
*Element, type=S4
1,  1,  2,  6,  5
2,  2,  3,  7,  6
3,  3,  4,  8,  7
4,  5,  6, 10,  9
5,  6,  7, 11, 10
6,  7,  8, 12, 11
7,  9, 10, 14, 13
8, 10, 11, 15, 14
9, 11, 12, 16, 15
*Elset, elset=SET-1, generate
 1,  9,  1
** Section: Section-21-SET-1
*Shell Section, elset=SET-1, material=MATERIAL-1
0.001, 5
*End Part
**  
*Part, name=PART-22
*Node
      1, 0.00652073463, 0.0406349935, 0.000282842724
      2, 0.00949961971, 0.0386445671, 0.000282842724
      3, 0.0124785043, 0.0366541408, 0.000282842724
      4, 0.0154573889, 0.0346637145, 0.000282842724
      5, 0.00652073463, 0.0406349935, 0.00386551698
      6, 0.00949961971, 0.0386445671, 0.00386551698
      7, 0.0124785043, 0.0366541408, 0.00386551698
      8, 0.0154573889, 0.0346637145, 0.00386551698
      9, 0.00652073463, 0.0406349935, 0.00744819129
     10, 0.00949961971, 0.0386445671, 0.00744819129
     11, 0.0124785043, 0.0366541408, 0.00744819129
     12, 0.0154573889, 0.0346637145, 0.00744819129
     13, 0.00652073463, 0.0406349935, 0.0110308658
     14, 0.00949961971, 0.0386445671, 0.0110308658
     15, 0.0124785043, 0.0366541408, 0.0110308658
     16, 0.0154573889, 0.0346637145, 0.0110308658
*Element, type=S4
1,  1,  2,  6,  5
2,  2,  3,  7,  6
3,  3,  4,  8,  7
4,  5,  6, 10,  9
5,  6,  7, 11, 10
6,  7,  8, 12, 11
7,  9, 10, 14, 13
8, 10, 11, 15, 14
9, 11, 12, 16, 15
*Elset, elset=SET-1, generate
 1,  9,  1
** Section: Section-22-SET-1
*Shell Section, elset=SET-1, material=MATERIAL-1
0.001, 5
*End Part
**  
*Part, name=PART-23
*Node
      1, 0.0155354254, 0.0342714004, 0.000282842724
      2, 0.0135449981,  0.031292513, 0.000282842724
      3, 0.0115545709, 0.0283136293, 0.000282842724
      4, 0.00956414361, 0.0253347438, 0.000282842724
      5, 0.0155354254, 0.0342714004, 0.00386551698
      6, 0.0135449981,  0.031292513, 0.00386551698
      7, 0.0115545709, 0.0283136293, 0.00386551698
      8, 0.00956414361, 0.0253347438, 0.00386551698
      9, 0.0155354254, 0.0342714004, 0.00744819129
     10, 0.0135449981,  0.031292513, 0.00744819129
     11, 0.0115545709, 0.0283136293, 0.00744819129
     12, 0.00956414361, 0.0253347438, 0.00744819129
     13, 0.0155354254, 0.0342714004, 0.0110308658
     14, 0.0135449981,  0.031292513, 0.0110308658
     15, 0.0115545709, 0.0283136293, 0.0110308658
     16, 0.00956414361, 0.0253347438, 0.0110308658
*Element, type=S4
1,  1,  2,  6,  5
2,  2,  3,  7,  6
3,  3,  4,  8,  7
4,  5,  6, 10,  9
5,  6,  7, 11, 10
6,  7,  8, 12, 11
7,  9, 10, 14, 13
8, 10, 11, 15, 14
9, 11, 12, 16, 15
*Elset, elset=SET-1, generate
 1,  9,  1
** Section: Section-23-SET-1
*Shell Section, elset=SET-1, material=MATERIAL-1
0.001, 5
*End Part
**  
*Part, name=PART-24
*Node
      1, 0.00917182956, 0.0252567083, 0.000282842724
      2, 0.00619294494, 0.0272471346, 0.000282842724
      3, 0.0032140601, 0.0292375628, 0.000282842724
      4, 0.000235175117, 0.0312279891, 0.000282842724
      5, 0.00917182956, 0.0252567083, 0.00386551698
      6, 0.00619294494, 0.0272471346, 0.00386551698
      7, 0.0032140601, 0.0292375628, 0.00386551698
      8, 0.000235175117, 0.0312279891, 0.00386551698
      9, 0.00917182956, 0.0252567083, 0.00744819129
     10, 0.00619294494, 0.0272471346, 0.00744819129
     11, 0.0032140601, 0.0292375628, 0.00744819129
     12, 0.000235175117, 0.0312279891, 0.00744819129
     13, 0.00917182956, 0.0252567083, 0.0110308658
     14, 0.00619294494, 0.0272471346, 0.0110308658
     15, 0.0032140601, 0.0292375628, 0.0110308658
     16, 0.000235175117, 0.0312279891, 0.0110308658
*Element, type=S4
1,  1,  2,  6,  5
2,  2,  3,  7,  6
3,  3,  4,  8,  7
4,  5,  6, 10,  9
5,  6,  7, 11, 10
6,  7,  8, 12, 11
7,  9, 10, 14, 13
8, 10, 11, 15, 14
9, 11, 12, 16, 15
*Elset, elset=SET-1, generate
 1,  9,  1
** Section: Section-24-SET-1
*Shell Section, elset=SET-1, material=MATERIAL-1
0.001, 5
*End Part
**  
*Part, name=PART-25
*Node
      1, 0.000392314105, 0.0314631648, 0.0113137085
      2, 0.00337119889, 0.0294727385, 0.0113137085
      3, 0.00635008374, 0.0274823103, 0.0113137085
      4, 0.00932896882,  0.025491884, 0.0113137085
      5, 0.00238274131, 0.0344420485, 0.0113137085
      6, 0.00536162639, 0.0324516222, 0.0113137085
      7, 0.00834051147, 0.0304611959, 0.0113137085
      8, 0.0113193961, 0.0284707677, 0.0113137085
      9, 0.00437316857, 0.0374209359, 0.0113137085
     10, 0.00735205365, 0.0354305059, 0.0113137085
     11, 0.0103309387, 0.0334400795, 0.0113137085
     12, 0.0133098233, 0.0314496532, 0.0113137085
     13, 0.00636359584, 0.0403998196, 0.0113137085
     14, 0.00934248045, 0.0384093933, 0.0113137085
     15, 0.0123213651, 0.0364189669, 0.0113137085
     16, 0.0153002506, 0.0344285369, 0.0113137085
*Element, type=S4
1,  1,  2,  6,  5
2,  2,  3,  7,  6
3,  3,  4,  8,  7
4,  5,  6, 10,  9
5,  6,  7, 11, 10
6,  7,  8, 12, 11
7,  9, 10, 14, 13
8, 10, 11, 15, 14
9, 11, 12, 16, 15
*Elset, elset=SET-1, generate
 1,  9,  1
** Section: Section-25-SET-1
*Shell Section, elset=SET-1, material=MATERIAL-1
0.001, 5
*End Part
**  
*Part, name=PART-26
*Node
      1, 0.0312279891,  0.031620305, 0.000282842724
      2, 0.0292375628, 0.0345991887, 0.000282842724
      3, 0.0272471346, 0.0375780724, 0.000282842724
      4, 0.0252567083, 0.0405569598, 0.000282842724
      5, 0.0312279891,  0.031620305, 0.00386551698
      6, 0.0292375628, 0.0345991887, 0.00386551698
      7, 0.0272471346, 0.0375780724, 0.00386551698
      8, 0.0252567083, 0.0405569598, 0.00386551698
      9, 0.0312279891,  0.031620305, 0.00744819129
     10, 0.0292375628, 0.0345991887, 0.00744819129
     11, 0.0272471346, 0.0375780724, 0.00744819129
     12, 0.0252567083, 0.0405569598, 0.00744819129
     13, 0.0312279891,  0.031620305, 0.0110308658
     14, 0.0292375628, 0.0345991887, 0.0110308658
     15, 0.0272471346, 0.0375780724, 0.0110308658
     16, 0.0252567083, 0.0405569598, 0.0110308658
*Element, type=S4
1,  1,  2,  6,  5
2,  2,  3,  7,  6
3,  3,  4,  8,  7
4,  5,  6, 10,  9
5,  6,  7, 11, 10
6,  7,  8, 12, 11
7,  9, 10, 14, 13
8, 10, 11, 15, 14
9, 11, 12, 16, 15
*Elset, elset=SET-1, generate
 1,  9,  1
** Section: Section-26-SET-1
*Shell Section, elset=SET-1, material=MATERIAL-1
0.001, 5
*End Part
**  
*Part, name=PART-27
*Node
      1, 0.0248643942, 0.0406349935, 0.000282842724
      2, 0.0218855087, 0.0386445671, 0.000282842724
      3,  0.018906625, 0.0366541408, 0.000282842724
      4, 0.0159277394, 0.0346637145, 0.000282842724
      5, 0.0248643942, 0.0406349935, 0.00386551698
      6, 0.0218855087, 0.0386445671, 0.00386551698
      7,  0.018906625, 0.0366541408, 0.00386551698
      8, 0.0159277394, 0.0346637145, 0.00386551698
      9, 0.0248643942, 0.0406349935, 0.00744819129
     10, 0.0218855087, 0.0386445671, 0.00744819129
     11,  0.018906625, 0.0366541408, 0.00744819129
     12, 0.0159277394, 0.0346637145, 0.00744819129
     13, 0.0248643942, 0.0406349935, 0.0110308658
     14, 0.0218855087, 0.0386445671, 0.0110308658
     15,  0.018906625, 0.0366541408, 0.0110308658
     16, 0.0159277394, 0.0346637145, 0.0110308658
*Element, type=S4
1,  1,  2,  6,  5
2,  2,  3,  7,  6
3,  3,  4,  8,  7
4,  5,  6, 10,  9
5,  6,  7, 11, 10
6,  7,  8, 12, 11
7,  9, 10, 14, 13
8, 10, 11, 15, 14
9, 11, 12, 16, 15
*Elset, elset=SET-1, generate
 1,  9,  1
** Section: Section-27-SET-1
*Shell Section, elset=SET-1, material=MATERIAL-1
0.001, 5
*End Part
**  
*Part, name=PART-28
*Node
      1, 0.0158497039, 0.0342714004, 0.000282842724
      2, 0.0178401303,  0.031292513, 0.000282842724
      3, 0.0198305584, 0.0283136293, 0.000282842724
      4, 0.0218209848, 0.0253347438, 0.000282842724
      5, 0.0158497039, 0.0342714004, 0.00386551698
      6, 0.0178401303,  0.031292513, 0.00386551698
      7, 0.0198305584, 0.0283136293, 0.00386551698
      8, 0.0218209848, 0.0253347438, 0.00386551698
      9, 0.0158497039, 0.0342714004, 0.00744819129
     10, 0.0178401303,  0.031292513, 0.00744819129
     11, 0.0198305584, 0.0283136293, 0.00744819129
     12, 0.0218209848, 0.0253347438, 0.00744819129
     13, 0.0158497039, 0.0342714004, 0.0110308658
     14, 0.0178401303,  0.031292513, 0.0110308658
     15, 0.0198305584, 0.0283136293, 0.0110308658
     16, 0.0218209848, 0.0253347438, 0.0110308658
*Element, type=S4
1,  1,  2,  6,  5
2,  2,  3,  7,  6
3,  3,  4,  8,  7
4,  5,  6, 10,  9
5,  6,  7, 11, 10
6,  7,  8, 12, 11
7,  9, 10, 14, 13
8, 10, 11, 15, 14
9, 11, 12, 16, 15
*Elset, elset=SET-1, generate
 1,  9,  1
** Section: Section-28-SET-1
*Shell Section, elset=SET-1, material=MATERIAL-1
0.001, 5
*End Part
**  
*Part, name=PART-29
*Node
      1, 0.0222132988, 0.0252567083, 0.000282842724
      2, 0.0251921844, 0.0272471346, 0.000282842724
      3, 0.0281710699, 0.0292375628, 0.000282842724
      4, 0.0311499536, 0.0312279891, 0.000282842724
      5, 0.0222132988, 0.0252567083, 0.00386551698
      6, 0.0251921844, 0.0272471346, 0.00386551698
      7, 0.0281710699, 0.0292375628, 0.00386551698
      8, 0.0311499536, 0.0312279891, 0.00386551698
      9, 0.0222132988, 0.0252567083, 0.00744819129
     10, 0.0251921844, 0.0272471346, 0.00744819129
     11, 0.0281710699, 0.0292375628, 0.00744819129
     12, 0.0311499536, 0.0312279891, 0.00744819129
     13, 0.0222132988, 0.0252567083, 0.0110308658
     14, 0.0251921844, 0.0272471346, 0.0110308658
     15, 0.0281710699, 0.0292375628, 0.0110308658
     16, 0.0311499536, 0.0312279891, 0.0110308658
*Element, type=S4
1,  1,  2,  6,  5
2,  2,  3,  7,  6
3,  3,  4,  8,  7
4,  5,  6, 10,  9
5,  6,  7, 11, 10
6,  7,  8, 12, 11
7,  9, 10, 14, 13
8, 10, 11, 15, 14
9, 11, 12, 16, 15
*Elset, elset=SET-1, generate
 1,  9,  1
** Section: Section-29-SET-1
*Shell Section, elset=SET-1, material=MATERIAL-1
0.001, 5
*End Part
**  
*Part, name=PART-30
*Node
      1, 0.0309928153, 0.0314631648, 0.0113137085
      2, 0.0280139297, 0.0294727385, 0.0113137085
      3,  0.025035046, 0.0274823103, 0.0113137085
      4, 0.0220561605,  0.025491884, 0.0113137085
      5, 0.0290023871, 0.0344420485, 0.0113137085
      6, 0.0260235034, 0.0324516222, 0.0113137085
      7, 0.0230446178, 0.0304611959, 0.0113137085
      8, 0.0200657323, 0.0284707677, 0.0113137085
      9, 0.0270119607, 0.0374209359, 0.0113137085
     10, 0.0240330752, 0.0354305059, 0.0113137085
     11, 0.0210541915, 0.0334400795, 0.0113137085
     12,  0.018075306, 0.0314496532, 0.0113137085
     13, 0.0250215326, 0.0403998196, 0.0113137085
     14, 0.0220426489, 0.0384093933, 0.0113137085
     15, 0.0190637633, 0.0364189669, 0.0113137085
     16, 0.0160848778, 0.0344285369, 0.0113137085
*Element, type=S4
1,  1,  2,  6,  5
2,  2,  3,  7,  6
3,  3,  4,  8,  7
4,  5,  6, 10,  9
5,  6,  7, 11, 10
6,  7,  8, 12, 11
7,  9, 10, 14, 13
8, 10, 11, 15, 14
9, 11, 12, 16, 15
*Elset, elset=SET-1, generate
 1,  9,  1
** Section: Section-30-SET-1
*Shell Section, elset=SET-1, material=MATERIAL-1
0.001, 5
*End Part
**  
**
** ASSEMBLY
**
*Assembly, name=Assembly
**  
*Instance, name=PART-1-1, part=PART-1
*End Instance
**  
*Instance, name=PART-2-1, part=PART-2
*End Instance
**  
*Instance, name=PART-3-1, part=PART-3
*End Instance
**  
*Instance, name=PART-4-1, part=PART-4
*End Instance
**  
*Instance, name=PART-5-1, part=PART-5
*End Instance
**  
*Instance, name=PART-6-1, part=PART-6
*End Instance
**  
*Instance, name=PART-7-1, part=PART-7
*End Instance
**  
*Instance, name=PART-8-1, part=PART-8
*End Instance
**  
*Instance, name=PART-9-1, part=PART-9
*End Instance
**  
*Instance, name=PART-10-1, part=PART-10
*End Instance
**  
*Instance, name=PART-11-1, part=PART-11
*End Instance
**  
*Instance, name=PART-12-1, part=PART-12
*End Instance
**  
*Instance, name=PART-13-1, part=PART-13
*End Instance
**  
*Instance, name=PART-14-1, part=PART-14
*End Instance
**  
*Instance, name=PART-15-1, part=PART-15
*End Instance
**  
*Instance, name=PART-16-1, part=PART-16
*End Instance
**  
*Instance, name=PART-17-1, part=PART-17
*End Instance
**  
*Instance, name=PART-18-1, part=PART-18
*End Instance
**  
*Instance, name=PART-19-1, part=PART-19
*End Instance
**  
*Instance, name=PART-20-1, part=PART-20
*End Instance
**  
*Instance, name=PART-21-1, part=PART-21
*End Instance
**  
*Instance, name=PART-22-1, part=PART-22
*End Instance
**  
*Instance, name=PART-23-1, part=PART-23
*End Instance
**  
*Instance, name=PART-24-1, part=PART-24
*End Instance
**  
*Instance, name=PART-25-1, part=PART-25
*End Instance
**  
*Instance, name=PART-26-1, part=PART-26
*End Instance
**  
*Instance, name=PART-27-1, part=PART-27
*End Instance
**  
*Instance, name=PART-28-1, part=PART-28
*End Instance
**  
*Instance, name=PART-29-1, part=PART-29
*End Instance
**  
*Instance, name=PART-30-1, part=PART-30
*End Instance
**  
*Element, type=CONN3D2
1, PART-1-1.5, PART-4-1.8
*Connector Section, elset=_PickedSet526, behavior=ConnProp-1_CONNSECT-1
Hinge,
PART-1-1-DATUM-CSYS-1-B, PART-4-1-DATUM-CSYS-4-B
*Element, type=CONN3D2
2, PART-1-1.9, PART-4-1.12
*Connector Section, elset=_PickedSet528, behavior=ConnProp-2_CONNSECT-1
Hinge,
PART-1-1-DATUM-CSYS-1-B, PART-4-1-DATUM-CSYS-4-B
*Element, type=CONN3D2
3, PART-14-1.5, PART-1-1.8
*Connector Section, elset=_PickedSet530, behavior=ConnProp-3_CONNSECT-1
Hinge,
PART-14-1-DATUM-CSYS-14-B, PART-1-1-DATUM-CSYS-1-B
*Element, type=CONN3D2
4, PART-14-1.9, PART-1-1.12
*Connector Section, elset=_PickedSet532, behavior=ConnProp-4_CONNSECT-1
Hinge,
PART-14-1-DATUM-CSYS-14-B, PART-1-1-DATUM-CSYS-1-B
*Element, type=CONN3D2
5, PART-2-1.5, PART-1-1.8
*Connector Section, elset=_PickedSet534, behavior=ConnProp-5_CONNSECT-1
Hinge,
PART-2-1-DATUM-CSYS-2-B, PART-1-1-DATUM-CSYS-1-B
*Element, type=CONN3D2
6, PART-2-1.9, PART-1-1.12
*Connector Section, elset=_PickedSet536, behavior=ConnProp-6_CONNSECT-1
Hinge,
PART-2-1-DATUM-CSYS-2-B, PART-1-1-DATUM-CSYS-1-B
*Element, type=CONN3D2
7, PART-2-1.5, PART-13-1.8
*Connector Section, elset=_PickedSet538, behavior=ConnProp-7_CONNSECT-1
Hinge,
PART-2-1-DATUM-CSYS-2-B, PART-13-1-DATUM-CSYS-13-B
*Element, type=CONN3D2
8, PART-2-1.9, PART-13-1.12
*Connector Section, elset=_PickedSet540, behavior=ConnProp-8_CONNSECT-1
Hinge,
PART-2-1-DATUM-CSYS-2-B, PART-13-1-DATUM-CSYS-13-B
*Element, type=CONN3D2
9, PART-2-1.8, PART-7-1.8
*Connector Section, elset=_PickedSet542, behavior=ConnProp-9_CONNSECT-1
Hinge,
PART-2-1-DATUM-CSYS-2-B, PART-7-1-DATUM-CSYS-7-B
*Element, type=CONN3D2
10, PART-2-1.12, PART-7-1.12
*Connector Section, elset=_PickedSet544, behavior=ConnProp-10_CONNSECT-1
Hinge,
PART-2-1-DATUM-CSYS-2-B, PART-7-1-DATUM-CSYS-7-B
*Element, type=CONN3D2
11, PART-3-1.5, PART-2-1.8
*Connector Section, elset=_PickedSet546, behavior=ConnProp-11_CONNSECT-1
Hinge,
PART-3-1-DATUM-CSYS-3-B, PART-2-1-DATUM-CSYS-2-B
*Element, type=CONN3D2
12, PART-3-1.9, PART-2-1.12
*Connector Section, elset=_PickedSet548, behavior=ConnProp-12_CONNSECT-1
Hinge,
PART-3-1-DATUM-CSYS-3-B, PART-2-1-DATUM-CSYS-2-B
*Element, type=CONN3D2
13, PART-3-1.5, PART-8-1.5
*Connector Section, elset=_PickedSet550, behavior=ConnProp-13_CONNSECT-1
Hinge,
PART-3-1-DATUM-CSYS-3-B, PART-8-1-DATUM-CSYS-8-B
*Element, type=CONN3D2
14, PART-3-1.9, PART-8-1.9
*Connector Section, elset=_PickedSet552, behavior=ConnProp-14_CONNSECT-1
Hinge,
PART-3-1-DATUM-CSYS-3-B, PART-8-1-DATUM-CSYS-8-B
*Element, type=CONN3D2
15, PART-4-1.5, PART-3-1.8
*Connector Section, elset=_PickedSet554, behavior=ConnProp-15_CONNSECT-1
Hinge,
PART-4-1-DATUM-CSYS-4-B, PART-3-1-DATUM-CSYS-3-B
*Element, type=CONN3D2
16, PART-4-1.9, PART-3-1.12
*Connector Section, elset=_PickedSet556, behavior=ConnProp-16_CONNSECT-1
Hinge,
PART-4-1-DATUM-CSYS-4-B, PART-3-1-DATUM-CSYS-3-B
*Element, type=CONN3D2
17, PART-6-1.5, PART-9-1.8
*Connector Section, elset=_PickedSet558, behavior=ConnProp-17_CONNSECT-1
Hinge,
PART-6-1-DATUM-CSYS-6-B, PART-9-1-DATUM-CSYS-9-B
*Element, type=CONN3D2
18, PART-6-1.9, PART-9-1.12
*Connector Section, elset=_PickedSet560, behavior=ConnProp-18_CONNSECT-1
Hinge,
PART-6-1-DATUM-CSYS-6-B, PART-9-1-DATUM-CSYS-9-B
*Element, type=CONN3D2
19, PART-19-1.5, PART-6-1.8
*Connector Section, elset=_PickedSet562, behavior=ConnProp-19_CONNSECT-1
Hinge,
PART-19-1-DATUM-CSYS-19-B, PART-6-1-DATUM-CSYS-6-B
*Element, type=CONN3D2
20, PART-19-1.9, PART-6-1.12
*Connector Section, elset=_PickedSet564, behavior=ConnProp-20_CONNSECT-1
Hinge,
PART-19-1-DATUM-CSYS-19-B, PART-6-1-DATUM-CSYS-6-B
*Element, type=CONN3D2
21, PART-7-1.5, PART-6-1.8
*Connector Section, elset=_PickedSet566, behavior=ConnProp-21_CONNSECT-1
Hinge,
PART-7-1-DATUM-CSYS-7-B, PART-6-1-DATUM-CSYS-6-B
*Element, type=CONN3D2
22, PART-7-1.9, PART-6-1.12
*Connector Section, elset=_PickedSet568, behavior=ConnProp-22_CONNSECT-1
Hinge,
PART-7-1-DATUM-CSYS-7-B, PART-6-1-DATUM-CSYS-6-B
*Element, type=CONN3D2
23, PART-7-1.5, PART-18-1.8
*Connector Section, elset=_PickedSet570, behavior=ConnProp-23_CONNSECT-1
Hinge,
PART-7-1-DATUM-CSYS-7-B, PART-18-1-DATUM-CSYS-18-B
*Element, type=CONN3D2
24, PART-7-1.9, PART-18-1.12
*Connector Section, elset=_PickedSet572, behavior=ConnProp-24_CONNSECT-1
Hinge,
PART-7-1-DATUM-CSYS-7-B, PART-18-1-DATUM-CSYS-18-B
*Element, type=CONN3D2
25, PART-8-1.5, PART-7-1.8
*Connector Section, elset=_PickedSet574, behavior=ConnProp-25_CONNSECT-1
Hinge,
PART-8-1-DATUM-CSYS-8-B, PART-7-1-DATUM-CSYS-7-B
*Element, type=CONN3D2
26, PART-8-1.9, PART-7-1.12
*Connector Section, elset=_PickedSet576, behavior=ConnProp-26_CONNSECT-1
Hinge,
PART-8-1-DATUM-CSYS-8-B, PART-7-1-DATUM-CSYS-7-B
*Element, type=CONN3D2
27, PART-9-1.5, PART-8-1.8
*Connector Section, elset=_PickedSet578, behavior=ConnProp-27_CONNSECT-1
Hinge,
PART-9-1-DATUM-CSYS-9-B, PART-8-1-DATUM-CSYS-8-B
*Element, type=CONN3D2
28, PART-9-1.9, PART-8-1.12
*Connector Section, elset=_PickedSet580, behavior=ConnProp-28_CONNSECT-1
Hinge,
PART-9-1-DATUM-CSYS-9-B, PART-8-1-DATUM-CSYS-8-B
*Element, type=CONN3D2
29, PART-11-1.5, PART-14-1.8
*Connector Section, elset=_PickedSet582, behavior=ConnProp-29_CONNSECT-1
Hinge,
PART-11-1-DATUM-CSYS-11-B, PART-14-1-DATUM-CSYS-14-B
*Element, type=CONN3D2
30, PART-11-1.9, PART-14-1.12
*Connector Section, elset=_PickedSet584, behavior=ConnProp-30_CONNSECT-1
Hinge,
PART-11-1-DATUM-CSYS-11-B, PART-14-1-DATUM-CSYS-14-B
*Element, type=CONN3D2
31, PART-24-1.5, PART-11-1.8
*Connector Section, elset=_PickedSet586, behavior=ConnProp-31_CONNSECT-1
Hinge,
PART-24-1-DATUM-CSYS-24-B, PART-11-1-DATUM-CSYS-11-B
*Element, type=CONN3D2
32, PART-24-1.9, PART-11-1.12
*Connector Section, elset=_PickedSet588, behavior=ConnProp-32_CONNSECT-1
Hinge,
PART-24-1-DATUM-CSYS-24-B, PART-11-1-DATUM-CSYS-11-B
*Element, type=CONN3D2
33, PART-12-1.5, PART-11-1.8
*Connector Section, elset=_PickedSet590, behavior=ConnProp-33_CONNSECT-1
Hinge,
PART-12-1-DATUM-CSYS-12-B, PART-11-1-DATUM-CSYS-11-B
*Element, type=CONN3D2
34, PART-12-1.9, PART-11-1.12
*Connector Section, elset=_PickedSet592, behavior=ConnProp-34_CONNSECT-1
Hinge,
PART-12-1-DATUM-CSYS-12-B, PART-11-1-DATUM-CSYS-11-B
*Element, type=CONN3D2
35, PART-12-1.5, PART-23-1.8
*Connector Section, elset=_PickedSet594, behavior=ConnProp-35_CONNSECT-1
Hinge,
PART-12-1-DATUM-CSYS-12-B, PART-23-1-DATUM-CSYS-23-B
*Element, type=CONN3D2
36, PART-12-1.9, PART-23-1.12
*Connector Section, elset=_PickedSet596, behavior=ConnProp-36_CONNSECT-1
Hinge,
PART-12-1-DATUM-CSYS-12-B, PART-23-1-DATUM-CSYS-23-B
*Element, type=CONN3D2
37, PART-13-1.5, PART-12-1.8
*Connector Section, elset=_PickedSet598, behavior=ConnProp-37_CONNSECT-1
Hinge,
PART-13-1-DATUM-CSYS-13-B, PART-12-1-DATUM-CSYS-12-B
*Element, type=CONN3D2
38, PART-13-1.9, PART-12-1.12
*Connector Section, elset=_PickedSet600, behavior=ConnProp-38_CONNSECT-1
Hinge,
PART-13-1-DATUM-CSYS-13-B, PART-12-1-DATUM-CSYS-12-B
*Element, type=CONN3D2
39, PART-14-1.5, PART-13-1.8
*Connector Section, elset=_PickedSet602, behavior=ConnProp-39_CONNSECT-1
Hinge,
PART-14-1-DATUM-CSYS-14-B, PART-13-1-DATUM-CSYS-13-B
*Element, type=CONN3D2
40, PART-14-1.9, PART-13-1.12
*Connector Section, elset=_PickedSet604, behavior=ConnProp-40_CONNSECT-1
Hinge,
PART-14-1-DATUM-CSYS-14-B, PART-13-1-DATUM-CSYS-13-B
*Element, type=CONN3D2
41, PART-16-1.5, PART-19-1.8
*Connector Section, elset=_PickedSet606, behavior=ConnProp-41_CONNSECT-1
Hinge,
PART-16-1-DATUM-CSYS-16-B, PART-19-1-DATUM-CSYS-19-B
*Element, type=CONN3D2
42, PART-16-1.9, PART-19-1.12
*Connector Section, elset=_PickedSet608, behavior=ConnProp-42_CONNSECT-1
Hinge,
PART-16-1-DATUM-CSYS-16-B, PART-19-1-DATUM-CSYS-19-B
*Element, type=CONN3D2
43, PART-29-1.5, PART-16-1.8
*Connector Section, elset=_PickedSet610, behavior=ConnProp-43_CONNSECT-1
Hinge,
PART-29-1-DATUM-CSYS-29-B, PART-16-1-DATUM-CSYS-16-B
*Element, type=CONN3D2
44, PART-29-1.9, PART-16-1.12
*Connector Section, elset=_PickedSet612, behavior=ConnProp-44_CONNSECT-1
Hinge,
PART-29-1-DATUM-CSYS-29-B, PART-16-1-DATUM-CSYS-16-B
*Element, type=CONN3D2
45, PART-17-1.5, PART-16-1.8
*Connector Section, elset=_PickedSet614, behavior=ConnProp-45_CONNSECT-1
Hinge,
PART-17-1-DATUM-CSYS-17-B, PART-16-1-DATUM-CSYS-16-B
*Element, type=CONN3D2
46, PART-17-1.9, PART-16-1.12
*Connector Section, elset=_PickedSet616, behavior=ConnProp-46_CONNSECT-1
Hinge,
PART-17-1-DATUM-CSYS-17-B, PART-16-1-DATUM-CSYS-16-B
*Element, type=CONN3D2
47, PART-17-1.5, PART-28-1.8
*Connector Section, elset=_PickedSet618, behavior=ConnProp-47_CONNSECT-1
Hinge,
PART-17-1-DATUM-CSYS-17-B, PART-28-1-DATUM-CSYS-28-B
*Element, type=CONN3D2
48, PART-17-1.9, PART-28-1.12
*Connector Section, elset=_PickedSet620, behavior=ConnProp-48_CONNSECT-1
Hinge,
PART-17-1-DATUM-CSYS-17-B, PART-28-1-DATUM-CSYS-28-B
*Element, type=CONN3D2
49, PART-18-1.5, PART-17-1.8
*Connector Section, elset=_PickedSet622, behavior=ConnProp-49_CONNSECT-1
Hinge,
PART-18-1-DATUM-CSYS-18-B, PART-17-1-DATUM-CSYS-17-B
*Element, type=CONN3D2
50, PART-18-1.9, PART-17-1.12
*Connector Section, elset=_PickedSet624, behavior=ConnProp-50_CONNSECT-1
Hinge,
PART-18-1-DATUM-CSYS-18-B, PART-17-1-DATUM-CSYS-17-B
*Element, type=CONN3D2
51, PART-19-1.5, PART-18-1.8
*Connector Section, elset=_PickedSet626, behavior=ConnProp-51_CONNSECT-1
Hinge,
PART-19-1-DATUM-CSYS-19-B, PART-18-1-DATUM-CSYS-18-B
*Element, type=CONN3D2
52, PART-19-1.9, PART-18-1.12
*Connector Section, elset=_PickedSet628, behavior=ConnProp-52_CONNSECT-1
Hinge,
PART-19-1-DATUM-CSYS-19-B, PART-18-1-DATUM-CSYS-18-B
*Element, type=CONN3D2
53, PART-21-1.5, PART-24-1.8
*Connector Section, elset=_PickedSet630, behavior=ConnProp-53_CONNSECT-1
Hinge,
PART-21-1-DATUM-CSYS-21-B, PART-24-1-DATUM-CSYS-24-B
*Element, type=CONN3D2
54, PART-21-1.9, PART-24-1.12
*Connector Section, elset=_PickedSet632, behavior=ConnProp-54_CONNSECT-1
Hinge,
PART-21-1-DATUM-CSYS-21-B, PART-24-1-DATUM-CSYS-24-B
*Element, type=CONN3D2
55, PART-22-1.5, PART-21-1.8
*Connector Section, elset=_PickedSet634, behavior=ConnProp-55_CONNSECT-1
Hinge,
PART-22-1-DATUM-CSYS-22-B, PART-21-1-DATUM-CSYS-21-B
*Element, type=CONN3D2
56, PART-22-1.9, PART-21-1.12
*Connector Section, elset=_PickedSet636, behavior=ConnProp-56_CONNSECT-1
Hinge,
PART-22-1-DATUM-CSYS-22-B, PART-21-1-DATUM-CSYS-21-B
*Element, type=CONN3D2
57, PART-23-1.5, PART-22-1.8
*Connector Section, elset=_PickedSet638, behavior=ConnProp-57_CONNSECT-1
Hinge,
PART-23-1-DATUM-CSYS-23-B, PART-22-1-DATUM-CSYS-22-B
*Element, type=CONN3D2
58, PART-23-1.9, PART-22-1.12
*Connector Section, elset=_PickedSet640, behavior=ConnProp-58_CONNSECT-1
Hinge,
PART-23-1-DATUM-CSYS-23-B, PART-22-1-DATUM-CSYS-22-B
*Element, type=CONN3D2
59, PART-24-1.5, PART-23-1.8
*Connector Section, elset=_PickedSet642, behavior=ConnProp-59_CONNSECT-1
Hinge,
PART-24-1-DATUM-CSYS-24-B, PART-23-1-DATUM-CSYS-23-B
*Element, type=CONN3D2
60, PART-24-1.9, PART-23-1.12
*Connector Section, elset=_PickedSet644, behavior=ConnProp-60_CONNSECT-1
Hinge,
PART-24-1-DATUM-CSYS-24-B, PART-23-1-DATUM-CSYS-23-B
*Element, type=CONN3D2
61, PART-26-1.5, PART-29-1.8
*Connector Section, elset=_PickedSet646, behavior=ConnProp-61_CONNSECT-1
Hinge,
PART-26-1-DATUM-CSYS-26-B, PART-29-1-DATUM-CSYS-29-B
*Element, type=CONN3D2
62, PART-26-1.9, PART-29-1.12
*Connector Section, elset=_PickedSet648, behavior=ConnProp-62_CONNSECT-1
Hinge,
PART-26-1-DATUM-CSYS-26-B, PART-29-1-DATUM-CSYS-29-B
*Element, type=CONN3D2
63, PART-27-1.5, PART-26-1.8
*Connector Section, elset=_PickedSet650, behavior=ConnProp-63_CONNSECT-1
Hinge,
PART-27-1-DATUM-CSYS-27-B, PART-26-1-DATUM-CSYS-26-B
*Element, type=CONN3D2
64, PART-27-1.9, PART-26-1.12
*Connector Section, elset=_PickedSet652, behavior=ConnProp-64_CONNSECT-1
Hinge,
PART-27-1-DATUM-CSYS-27-B, PART-26-1-DATUM-CSYS-26-B
*Element, type=CONN3D2
65, PART-27-1.8, PART-22-1.8
*Connector Section, elset=_PickedSet654, behavior=ConnProp-65_CONNSECT-1
Hinge,
PART-27-1-DATUM-CSYS-27-B, PART-22-1-DATUM-CSYS-22-B
*Element, type=CONN3D2
66, PART-27-1.12, PART-22-1.12
*Connector Section, elset=_PickedSet656, behavior=ConnProp-66_CONNSECT-1
Hinge,
PART-27-1-DATUM-CSYS-27-B, PART-22-1-DATUM-CSYS-22-B
*Element, type=CONN3D2
67, PART-28-1.5, PART-27-1.8
*Connector Section, elset=_PickedSet658, behavior=ConnProp-67_CONNSECT-1
Hinge,
PART-28-1-DATUM-CSYS-28-B, PART-27-1-DATUM-CSYS-27-B
*Element, type=CONN3D2
68, PART-28-1.9, PART-27-1.12
*Connector Section, elset=_PickedSet660, behavior=ConnProp-68_CONNSECT-1
Hinge,
PART-28-1-DATUM-CSYS-28-B, PART-27-1-DATUM-CSYS-27-B
*Element, type=CONN3D2
69, PART-28-1.5, PART-23-1.5
*Connector Section, elset=_PickedSet662, behavior=ConnProp-69_CONNSECT-1
Hinge,
PART-28-1-DATUM-CSYS-28-B, PART-23-1-DATUM-CSYS-23-B
*Element, type=CONN3D2
70, PART-28-1.9, PART-23-1.9
*Connector Section, elset=_PickedSet664, behavior=ConnProp-70_CONNSECT-1
Hinge,
PART-28-1-DATUM-CSYS-28-B, PART-23-1-DATUM-CSYS-23-B
*Element, type=CONN3D2
71, PART-29-1.5, PART-28-1.8
*Connector Section, elset=_PickedSet666, behavior=ConnProp-71_CONNSECT-1
Hinge,
PART-29-1-DATUM-CSYS-29-B, PART-28-1-DATUM-CSYS-28-B
*Element, type=CONN3D2
72, PART-29-1.9, PART-28-1.12
*Connector Section, elset=_PickedSet668, behavior=ConnProp-72_CONNSECT-1
Hinge,
PART-29-1-DATUM-CSYS-29-B, PART-28-1-DATUM-CSYS-28-B
*Element, type=CONN3D2
73, PART-5-1.5, PART-1-1.14
*Connector Section, elset=_PickedSet670, behavior=ConnProp-73_CONNSECT-1
Hinge,
PART-5-1-DATUM-CSYS-5-B, PART-1-1-DATUM-CSYS-1-A
*Element, type=CONN3D2
74, PART-5-1.9, PART-1-1.15
*Connector Section, elset=_PickedSet672, behavior=ConnProp-74_CONNSECT-1
Hinge,
PART-5-1-DATUM-CSYS-5-B, PART-1-1-DATUM-CSYS-1-A
*Element, type=CONN3D2
75, PART-5-1.14, PART-2-1.14
*Connector Section, elset=_PickedSet674, behavior=ConnProp-75_CONNSECT-1
Hinge,
PART-5-1-DATUM-CSYS-5-A, PART-2-1-DATUM-CSYS-2-A
*Element, type=CONN3D2
76, PART-5-1.15, PART-2-1.15
*Connector Section, elset=_PickedSet676, behavior=ConnProp-76_CONNSECT-1
Hinge,
PART-5-1-DATUM-CSYS-5-A, PART-2-1-DATUM-CSYS-2-A
*Element, type=CONN3D2
77, PART-5-1.8, PART-3-1.15
*Connector Section, elset=_PickedSet678, behavior=ConnProp-77_CONNSECT-1
Hinge,
PART-5-1-DATUM-CSYS-5-D, PART-3-1-DATUM-CSYS-3-A
*Element, type=CONN3D2
78, PART-5-1.12, PART-3-1.14
*Connector Section, elset=_PickedSet680, behavior=ConnProp-78_CONNSECT-1
Hinge,
PART-5-1-DATUM-CSYS-5-D, PART-3-1-DATUM-CSYS-3-A
*Element, type=CONN3D2
79, PART-5-1.2, PART-4-1.15
*Connector Section, elset=_PickedSet682, behavior=ConnProp-79_CONNSECT-1
Hinge,
PART-5-1-DATUM-CSYS-5-C, PART-4-1-DATUM-CSYS-4-A
*Element, type=CONN3D2
80, PART-5-1.3, PART-4-1.14
*Connector Section, elset=_PickedSet684, behavior=ConnProp-80_CONNSECT-1
Hinge,
PART-5-1-DATUM-CSYS-5-C, PART-4-1-DATUM-CSYS-4-A
*Element, type=CONN3D2
81, PART-10-1.5, PART-6-1.14
*Connector Section, elset=_PickedSet686, behavior=ConnProp-81_CONNSECT-1
Hinge,
PART-10-1-DATUM-CSYS-10-B, PART-6-1-DATUM-CSYS-6-A
*Element, type=CONN3D2
82, PART-10-1.9, PART-6-1.15
*Connector Section, elset=_PickedSet688, behavior=ConnProp-82_CONNSECT-1
Hinge,
PART-10-1-DATUM-CSYS-10-B, PART-6-1-DATUM-CSYS-6-A
*Element, type=CONN3D2
83, PART-10-1.14, PART-7-1.14
*Connector Section, elset=_PickedSet690, behavior=ConnProp-83_CONNSECT-1
Hinge,
PART-10-1-DATUM-CSYS-10-A, PART-7-1-DATUM-CSYS-7-A
*Element, type=CONN3D2
84, PART-10-1.15, PART-7-1.15
*Connector Section, elset=_PickedSet692, behavior=ConnProp-84_CONNSECT-1
Hinge,
PART-10-1-DATUM-CSYS-10-A, PART-7-1-DATUM-CSYS-7-A
*Element, type=CONN3D2
85, PART-10-1.8, PART-8-1.15
*Connector Section, elset=_PickedSet694, behavior=ConnProp-85_CONNSECT-1
Hinge,
PART-10-1-DATUM-CSYS-10-D, PART-8-1-DATUM-CSYS-8-A
*Element, type=CONN3D2
86, PART-10-1.12, PART-8-1.14
*Connector Section, elset=_PickedSet696, behavior=ConnProp-86_CONNSECT-1
Hinge,
PART-10-1-DATUM-CSYS-10-D, PART-8-1-DATUM-CSYS-8-A
*Element, type=CONN3D2
87, PART-10-1.2, PART-9-1.15
*Connector Section, elset=_PickedSet698, behavior=ConnProp-87_CONNSECT-1
Hinge,
PART-10-1-DATUM-CSYS-10-C, PART-9-1-DATUM-CSYS-9-A
*Element, type=CONN3D2
88, PART-10-1.3, PART-9-1.14
*Connector Section, elset=_PickedSet700, behavior=ConnProp-88_CONNSECT-1
Hinge,
PART-10-1-DATUM-CSYS-10-C, PART-9-1-DATUM-CSYS-9-A
*Element, type=CONN3D2
89, PART-15-1.5, PART-11-1.14
*Connector Section, elset=_PickedSet702, behavior=ConnProp-89_CONNSECT-1
Hinge,
PART-15-1-DATUM-CSYS-15-B, PART-11-1-DATUM-CSYS-11-A
*Element, type=CONN3D2
90, PART-15-1.9, PART-11-1.15
*Connector Section, elset=_PickedSet704, behavior=ConnProp-90_CONNSECT-1
Hinge,
PART-15-1-DATUM-CSYS-15-B, PART-11-1-DATUM-CSYS-11-A
*Element, type=CONN3D2
91, PART-15-1.14, PART-12-1.14
*Connector Section, elset=_PickedSet706, behavior=ConnProp-91_CONNSECT-1
Hinge,
PART-15-1-DATUM-CSYS-15-A, PART-12-1-DATUM-CSYS-12-A
*Element, type=CONN3D2
92, PART-15-1.15, PART-12-1.15
*Connector Section, elset=_PickedSet708, behavior=ConnProp-92_CONNSECT-1
Hinge,
PART-15-1-DATUM-CSYS-15-A, PART-12-1-DATUM-CSYS-12-A
*Element, type=CONN3D2
93, PART-15-1.8, PART-13-1.15
*Connector Section, elset=_PickedSet710, behavior=ConnProp-93_CONNSECT-1
Hinge,
PART-15-1-DATUM-CSYS-15-D, PART-13-1-DATUM-CSYS-13-A
*Element, type=CONN3D2
94, PART-15-1.12, PART-13-1.14
*Connector Section, elset=_PickedSet712, behavior=ConnProp-94_CONNSECT-1
Hinge,
PART-15-1-DATUM-CSYS-15-D, PART-13-1-DATUM-CSYS-13-A
*Element, type=CONN3D2
95, PART-15-1.2, PART-14-1.15
*Connector Section, elset=_PickedSet714, behavior=ConnProp-95_CONNSECT-1
Hinge,
PART-15-1-DATUM-CSYS-15-C, PART-14-1-DATUM-CSYS-14-A
*Element, type=CONN3D2
96, PART-15-1.3, PART-14-1.14
*Connector Section, elset=_PickedSet716, behavior=ConnProp-96_CONNSECT-1
Hinge,
PART-15-1-DATUM-CSYS-15-C, PART-14-1-DATUM-CSYS-14-A
*Element, type=CONN3D2
97, PART-20-1.5, PART-16-1.14
*Connector Section, elset=_PickedSet718, behavior=ConnProp-97_CONNSECT-1
Hinge,
PART-20-1-DATUM-CSYS-20-B, PART-16-1-DATUM-CSYS-16-A
*Element, type=CONN3D2
98, PART-20-1.9, PART-16-1.15
*Connector Section, elset=_PickedSet720, behavior=ConnProp-98_CONNSECT-1
Hinge,
PART-20-1-DATUM-CSYS-20-B, PART-16-1-DATUM-CSYS-16-A
*Element, type=CONN3D2
99, PART-20-1.14, PART-17-1.14
*Connector Section, elset=_PickedSet722, behavior=ConnProp-99_CONNSECT-1
Hinge,
PART-20-1-DATUM-CSYS-20-A, PART-17-1-DATUM-CSYS-17-A
*Element, type=CONN3D2
100, PART-20-1.15, PART-17-1.15
*Connector Section, elset=_PickedSet724, behavior=ConnProp-100_CONNSECT-1
Hinge,
PART-20-1-DATUM-CSYS-20-A, PART-17-1-DATUM-CSYS-17-A
*Element, type=CONN3D2
101, PART-20-1.8, PART-18-1.15
*Connector Section, elset=_PickedSet726, behavior=ConnProp-101_CONNSECT-1
Hinge,
PART-20-1-DATUM-CSYS-20-D, PART-18-1-DATUM-CSYS-18-A
*Element, type=CONN3D2
102, PART-20-1.12, PART-18-1.14
*Connector Section, elset=_PickedSet728, behavior=ConnProp-102_CONNSECT-1
Hinge,
PART-20-1-DATUM-CSYS-20-D, PART-18-1-DATUM-CSYS-18-A
*Element, type=CONN3D2
103, PART-20-1.2, PART-19-1.15
*Connector Section, elset=_PickedSet730, behavior=ConnProp-103_CONNSECT-1
Hinge,
PART-20-1-DATUM-CSYS-20-C, PART-19-1-DATUM-CSYS-19-A
*Element, type=CONN3D2
104, PART-20-1.3, PART-19-1.14
*Connector Section, elset=_PickedSet732, behavior=ConnProp-104_CONNSECT-1
Hinge,
PART-20-1-DATUM-CSYS-20-C, PART-19-1-DATUM-CSYS-19-A
*Element, type=CONN3D2
105, PART-25-1.5, PART-21-1.14
*Connector Section, elset=_PickedSet734, behavior=ConnProp-105_CONNSECT-1
Hinge,
PART-25-1-DATUM-CSYS-25-B, PART-21-1-DATUM-CSYS-21-A
*Element, type=CONN3D2
106, PART-25-1.9, PART-21-1.15
*Connector Section, elset=_PickedSet736, behavior=ConnProp-106_CONNSECT-1
Hinge,
PART-25-1-DATUM-CSYS-25-B, PART-21-1-DATUM-CSYS-21-A
*Element, type=CONN3D2
107, PART-25-1.14, PART-22-1.14
*Connector Section, elset=_PickedSet738, behavior=ConnProp-107_CONNSECT-1
Hinge,
PART-25-1-DATUM-CSYS-25-A, PART-22-1-DATUM-CSYS-22-A
*Element, type=CONN3D2
108, PART-25-1.15, PART-22-1.15
*Connector Section, elset=_PickedSet740, behavior=ConnProp-108_CONNSECT-1
Hinge,
PART-25-1-DATUM-CSYS-25-A, PART-22-1-DATUM-CSYS-22-A
*Element, type=CONN3D2
109, PART-25-1.8, PART-23-1.15
*Connector Section, elset=_PickedSet742, behavior=ConnProp-109_CONNSECT-1
Hinge,
PART-25-1-DATUM-CSYS-25-D, PART-23-1-DATUM-CSYS-23-A
*Element, type=CONN3D2
110, PART-25-1.12, PART-23-1.14
*Connector Section, elset=_PickedSet744, behavior=ConnProp-110_CONNSECT-1
Hinge,
PART-25-1-DATUM-CSYS-25-D, PART-23-1-DATUM-CSYS-23-A
*Element, type=CONN3D2
111, PART-25-1.2, PART-24-1.15
*Connector Section, elset=_PickedSet746, behavior=ConnProp-111_CONNSECT-1
Hinge,
PART-25-1-DATUM-CSYS-25-C, PART-24-1-DATUM-CSYS-24-A
*Element, type=CONN3D2
112, PART-25-1.3, PART-24-1.14
*Connector Section, elset=_PickedSet748, behavior=ConnProp-112_CONNSECT-1
Hinge,
PART-25-1-DATUM-CSYS-25-C, PART-24-1-DATUM-CSYS-24-A
*Element, type=CONN3D2
113, PART-30-1.5, PART-26-1.14
*Connector Section, elset=_PickedSet750, behavior=ConnProp-113_CONNSECT-1
Hinge,
PART-30-1-DATUM-CSYS-30-B, PART-26-1-DATUM-CSYS-26-A
*Element, type=CONN3D2
114, PART-30-1.9, PART-26-1.15
*Connector Section, elset=_PickedSet752, behavior=ConnProp-114_CONNSECT-1
Hinge,
PART-30-1-DATUM-CSYS-30-B, PART-26-1-DATUM-CSYS-26-A
*Element, type=CONN3D2
115, PART-30-1.14, PART-27-1.14
*Connector Section, elset=_PickedSet754, behavior=ConnProp-115_CONNSECT-1
Hinge,
PART-30-1-DATUM-CSYS-30-A, PART-27-1-DATUM-CSYS-27-A
*Element, type=CONN3D2
116, PART-30-1.15, PART-27-1.15
*Connector Section, elset=_PickedSet756, behavior=ConnProp-116_CONNSECT-1
Hinge,
PART-30-1-DATUM-CSYS-30-A, PART-27-1-DATUM-CSYS-27-A
*Element, type=CONN3D2
117, PART-30-1.8, PART-28-1.15
*Connector Section, elset=_PickedSet758, behavior=ConnProp-117_CONNSECT-1
Hinge,
PART-30-1-DATUM-CSYS-30-D, PART-28-1-DATUM-CSYS-28-A
*Element, type=CONN3D2
118, PART-30-1.12, PART-28-1.14
*Connector Section, elset=_PickedSet760, behavior=ConnProp-118_CONNSECT-1
Hinge,
PART-30-1-DATUM-CSYS-30-D, PART-28-1-DATUM-CSYS-28-A
*Element, type=CONN3D2
119, PART-30-1.2, PART-29-1.15
*Connector Section, elset=_PickedSet762, behavior=ConnProp-119_CONNSECT-1
Hinge,
PART-30-1-DATUM-CSYS-30-C, PART-29-1-DATUM-CSYS-29-A
*Element, type=CONN3D2
120, PART-30-1.3, PART-29-1.14
*Connector Section, elset=_PickedSet764, behavior=ConnProp-120_CONNSECT-1
Hinge,
PART-30-1-DATUM-CSYS-30-C, PART-29-1-DATUM-CSYS-29-A
*Nset, nset=SET-121, instance=PART-1-1, generate
 1,  4,  1
*Nset, nset=SET-121, instance=PART-2-1, generate
 1,  4,  1
*Nset, nset=SET-121, instance=PART-3-1, generate
 1,  4,  1
*Nset, nset=SET-121, instance=PART-9-1, generate
 1,  4,  1
*Nset, nset=SET-121, instance=PART-17-1, generate
 1,  4,  1
*Nset, nset=SET-121, instance=PART-21-1, generate
 1,  4,  1
*Nset, nset=SET-121, instance=PART-29-1, generate
 1,  4,  1
*Nset, nset=SET-121, instance=PART-13-1, generate
 1,  4,  1
*Nset, nset=SET-121, instance=PART-27-1, generate
 1,  4,  1
*Nset, nset=SET-121, instance=PART-11-1, generate
 1,  4,  1
*Nset, nset=SET-121, instance=PART-19-1, generate
 1,  4,  1
*Nset, nset=SET-121, instance=PART-23-1, generate
 1,  4,  1
*Nset, nset=SET-121, instance=PART-7-1, generate
 1,  4,  1
*Nset, nset=SET-121, instance=PART-4-1, generate
 1,  4,  1
*Nset, nset=SET-121, instance=PART-26-1, generate
 1,  4,  1
*Nset, nset=SET-121, instance=PART-18-1, generate
 1,  4,  1
*Nset, nset=SET-121, instance=PART-22-1, generate
 1,  4,  1
*Nset, nset=SET-121, instance=PART-6-1, generate
 1,  4,  1
*Nset, nset=SET-121, instance=PART-14-1, generate
 1,  4,  1
*Nset, nset=SET-121, instance=PART-8-1, generate
 1,  4,  1
** ... 20 like lines cut
*Nset, nset=WIRE-1-4-2-SET-1, instance=PART-1-1
 5,
*Nset, nset=WIRE-1-4-2-SET-1, instance=PART-4-1
 8,
*Nset, nset=WIRE-1-4-3-SET-1, instance=PART-1-1
 9,
*Nset, nset=WIRE-1-4-3-SET-1, instance=PART-4-1
 12,
*Nset, nset=WIRE-2-1-2-SET-1, instance=PART-2-1
 5,
*Nset, nset=WIRE-2-1-2-SET-1, instance=PART-1-1
 8,
*Nset, nset=WIRE-2-1-3-SET-1, instance=PART-2-1
 9,
*Nset, nset=WIRE-2-1-3-SET-1, instance=PART-1-1
 12,
*Nset, nset=WIRE-2-7-2-SET-1, instance=PART-2-1
 8,
*Nset, nset=WIRE-2-7-2-SET-1, instance=PART-7-1
 8,
*Nset, nset=WIRE-2-7-3-SET-1, instance=PART-2-1
 12,
*Nset, nset=WIRE-2-7-3-SET-1, instance=PART-7-1
 12,
*Nset, nset=WIRE-2-13-2-SET-1, instance=PART-2-1
 5,
*Nset, nset=WIRE-2-13-2-SET-1, instance=PART-13-1
 8,
*Nset, nset=WIRE-2-13-3-SET-1, instance=PART-2-1
 9,
*Nset, nset=WIRE-2-13-3-SET-1, instance=PART-13-1
 12,
*Nset, nset=WIRE-3-2-2-SET-1, instance=PART-3-1
 5,
*Nset, nset=WIRE-3-2-2-SET-1, instance=PART-2-1
 8,
*Nset, nset=WIRE-3-2-3-SET-1, instance=PART-3-1
 9,
*Nset, nset=WIRE-3-2-3-SET-1, instance=PART-2-1
 12,
** ... 440 like lines cut
*Elset, elset=_PickedSet526, internal
 1,
*Elset, elset=_PickedSet528, internal
 2,
*Elset, elset=_PickedSet530, internal
 3,
*Elset, elset=_PickedSet532, internal
 4,
*Elset, elset=_PickedSet534, internal
 5,
*Elset, elset=_PickedSet536, internal
 6,
*Elset, elset=_PickedSet538, internal
 7,
*Elset, elset=_PickedSet540, internal
 8,
*Elset, elset=_PickedSet542, internal
 9,
*Elset, elset=_PickedSet544, internal
 10,
*Elset, elset=_PickedSet546, internal
 11,
*Elset, elset=_PickedSet548, internal
 12,
*Elset, elset=_PickedSet550, internal
 13,
*Elset, elset=_PickedSet552, internal
 14,
*Elset, elset=_PickedSet554, internal
 15,
*Elset, elset=_PickedSet556, internal
 16,
*Elset, elset=_PickedSet558, internal
 17,
*Elset, elset=_PickedSet560, internal
 18,
*Elset, elset=_PickedSet562, internal
 19,
*Elset, elset=_PickedSet564, internal
 20,
** ... 200 like lines cut
*Orientation, name=PART-1-1-DATUM-CSYS-1-B
          0.,           0.,           1., 0.555570233019602, 0.831469612302545,           0.
1, 0.
*Orientation, name=PART-4-1-DATUM-CSYS-4-B
          0.,           0.,           1., -0.831469612302545, 0.555570233019602,           0.
1, 0.
*Orientation, name=PART-14-1-DATUM-CSYS-14-B
          0.,           0.,           1., -0.264126422950409, 0.964488067681204,           0.
1, 0.
*Orientation, name=PART-2-1-DATUM-CSYS-2-B
          0.,           0.,           1., 0.831469612302545, -0.555570233019602,           0.
1, 0.
*Orientation, name=PART-13-1-DATUM-CSYS-13-B
          0.,           0.,           1., -0.613114600374718, -0.789993978969049,           0.
1, 0.
*Orientation, name=PART-7-1-DATUM-CSYS-7-B
          0.,           0.,           1., -0.831469612302545, -0.555570233019602,           0.
1, 0.
*Orientation, name=PART-3-1-DATUM-CSYS-3-B
          0.,           0.,           1., -0.555570233019602, -0.831469612302545,           0.
1, 0.
*Orientation, name=PART-8-1-DATUM-CSYS-8-B
          0.,           0.,           1., 0.555570233019602, -0.831469612302545,           0.
1, 0.
*Orientation, name=PART-6-1-DATUM-CSYS-6-B
          0.,           0.,           1., -0.555570233019602, 0.831469612302545,           0.
1, 0.
*Orientation, name=PART-9-1-DATUM-CSYS-9-B
          0.,           0.,           1., 0.831469612302545, 0.555570233019602,           0.
1, 0.
*Orientation, name=PART-19-1-DATUM-CSYS-19-B
          0.,           0.,           1., 0.264126422950409, 0.964488067681204,           0.
1, 0.
*Orientation, name=PART-18-1-DATUM-CSYS-18-B
          0.,           0.,           1., 0.613114600374718, -0.789993978969049,           0.
1, 0.
*Orientation, name=PART-11-1-DATUM-CSYS-11-B
          0.,           0.,           1., 0.613114600374718, 0.789993978969049,           0.
1, 0.
*Orientation, name=PART-24-1-DATUM-CSYS-24-B
          0.,           0.,           1., -0.831469612302545, 0.555570233019602,           0.
1, 0.
*Orientation, name=PART-12-1-DATUM-CSYS-12-B
          0.,           0.,           1., 0.264126422950408, -0.964488067681204,           0.
1, 0.
*Orientation, name=PART-23-1-DATUM-CSYS-23-B
          0.,           0.,           1., -0.555570233019602, -0.831469612302545,           0.
1, 0.
*Orientation, name=PART-16-1-DATUM-CSYS-16-B
          0.,           0.,           1., -0.613114600374718, 0.789993978969049,           0.
1, 0.
*Orientation, name=PART-29-1-DATUM-CSYS-29-B
          0.,           0.,           1., 0.831469612302545, 0.555570233019602,           0.
1, 0.
*Orientation, name=PART-17-1-DATUM-CSYS-17-B
          0.,           0.,           1., -0.264126422950408, -0.964488067681204,           0.
1, 0.
*Orientation, name=PART-28-1-DATUM-CSYS-28-B
          0.,           0.,           1., 0.555570233019602, -0.831469612302545,           0.
1, 0.
** ... 15 like lines cut
*Orientation, name=PART-1-1-DATUM-CSYS-1-A
0.555570233019602, 0.831469612302545,           0.,           0.,           0.,           1.
1, 0.
*Orientation, name=PART-5-1-DATUM-CSYS-5-A
0.831469612302545, -0.555570233019602,           0., 0.555570233019602, 0.831469612302545,           0.
1, 0.
*Orientation, name=PART-2-1-DATUM-CSYS-2-A
0.831469612302545, -0.555570233019602,           0.,           0.,           0.,           1.
1, 0.
*Orientation, name=PART-5-1-DATUM-CSYS-5-D
-0.555570233019602, -0.831469612302545,           0., 0.831469612302545, -0.555570233019602,           0.
1, 0.
*Orientation, name=PART-3-1-DATUM-CSYS-3-A
-0.555570233019602, -0.831469612302545,           0.,           0.,           0.,           1.
1, 0.
*Orientation, name=PART-5-1-DATUM-CSYS-5-C
-0.831469612302545, 0.555570233019602,           0., 0.555570233019602, 0.831469612302545,           0.
1, 0.
*Orientation, name=PART-4-1-DATUM-CSYS-4-A
-0.831469612302545, 0.555570233019602,           0.,           0.,           0.,           1.
1, 0.
*Orientation, name=PART-10-1-DATUM-CSYS-10-B
-0.555570233019602, 0.831469612302545,           0., -0.831469612302545, -0.555570233019602,           0.
1, 0.
*Orientation, name=PART-6-1-DATUM-CSYS-6-A
-0.555570233019602, 0.831469612302545,           0.,           0.,           0.,           1.
1, 0.
*Orientation, name=PART-10-1-DATUM-CSYS-10-A
-0.831469612302545, -0.555570233019602,           0., -0.555570233019602, 0.831469612302545,           0.
1, 0.
*Orientation, name=PART-7-1-DATUM-CSYS-7-A
-0.831469612302545, -0.555570233019602,           0.,           0.,           0.,           1.
1, 0.
*Orientation, name=PART-10-1-DATUM-CSYS-10-D
0.555570233019602, -0.831469612302545,           0., -0.831469612302545, -0.555570233019602,           0.
1, 0.
*Orientation, name=PART-8-1-DATUM-CSYS-8-A
0.555570233019602, -0.831469612302545,           0.,           0.,           0.,           1.
1, 0.
*Orientation, name=PART-10-1-DATUM-CSYS-10-C
0.831469612302545, 0.555570233019602,           0., -0.555570233019602, 0.831469612302545,           0.
1, 0.
*Orientation, name=PART-9-1-DATUM-CSYS-9-A
0.831469612302545, 0.555570233019602,           0.,           0.,           0.,           1.
1, 0.
*Orientation, name=PART-15-1-DATUM-CSYS-15-B
0.613114600374718, 0.789993978969049,           0., 0.789993978969049, -0.613114600374718,           0.
1, 0.
*Orientation, name=PART-11-1-DATUM-CSYS-11-A
0.613114600374718, 0.789993978969049,           0.,           0.,           0.,           1.
1, 0.
*Orientation, name=PART-15-1-DATUM-CSYS-15-A
0.264126422950409, -0.964488067681204,           0., 0.964488067681204, 0.264126422950409,           0.
1, 0.
*Orientation, name=PART-12-1-DATUM-CSYS-12-A
0.264126422950408, -0.964488067681204,           0.,           0.,           0.,           1.
1, 0.
*Orientation, name=PART-15-1-DATUM-CSYS-15-D
-0.613114600374718, -0.789993978969049,           0., 0.789993978969049, -0.613114600374718,           0.
1, 0.
*Orientation, name=PART-13-1-DATUM-CSYS-13-A
-0.613114600374718, -0.789993978969049,           0.,           0.,           0.,           1.
1, 0.
*Orientation, name=PART-15-1-DATUM-CSYS-15-C
-0.264126422950409, 0.964488067681204,           0., 0.964488067681204, 0.264126422950409,           0.
1, 0.
*Orientation, name=PART-14-1-DATUM-CSYS-14-A
-0.264126422950409, 0.964488067681204,           0.,           0.,           0.,           1.
1, 0.
*Orientation, name=PART-20-1-DATUM-CSYS-20-B
-0.613114600374718, 0.789993978969049,           0., -0.789993978969049, -0.613114600374718,           0.
1, 0.
*Orientation, name=PART-16-1-DATUM-CSYS-16-A
-0.613114600374718, 0.789993978969049,           0.,           0.,           0.,           1.
1, 0.
*Orientation, name=PART-20-1-DATUM-CSYS-20-A
-0.264126422950409, -0.964488067681204,           0., -0.964488067681204, 0.264126422950409,           0.
1, 0.
*Orientation, name=PART-17-1-DATUM-CSYS-17-A
-0.264126422950408, -0.964488067681204,           0.,           0.,           0.,           1.
1, 0.
*Orientation, name=PART-20-1-DATUM-CSYS-20-D
0.613114600374718, -0.789993978969049,           0., -0.789993978969049, -0.613114600374718,           0.
1, 0.
*Orientation, name=PART-18-1-DATUM-CSYS-18-A
0.613114600374718, -0.789993978969049,           0.,           0.,           0.,           1.
1, 0.
*Orientation, name=PART-20-1-DATUM-CSYS-20-C
0.264126422950409, 0.964488067681204,           0., -0.964488067681204, 0.264126422950409,           0.
1, 0.
*Orientation, name=PART-19-1-DATUM-CSYS-19-A
0.264126422950409, 0.964488067681204,           0.,           0.,           0.,           1.
1, 0.
*Orientation, name=PART-25-1-DATUM-CSYS-25-B
0.555570233019602, 0.831469612302545,           0., 0.831469612302545, -0.555570233019602,           0.
1, 0.
*Orientation, name=PART-21-1-DATUM-CSYS-21-A
0.555570233019602, 0.831469612302545,           0.,           0.,           0.,           1.
1, 0.
*Orientation, name=PART-25-1-DATUM-CSYS-25-A
0.831469612302545, -0.555570233019602,           0., 0.555570233019602, 0.831469612302545,           0.
1, 0.
*Orientation, name=PART-22-1-DATUM-CSYS-22-A
0.831469612302546, -0.555570233019602,           0.,           0.,           0.,           1.
1, 0.
*Orientation, name=PART-25-1-DATUM-CSYS-25-D
-0.555570233019602, -0.831469612302545,           0., 0.831469612302545, -0.555570233019602,           0.
1, 0.
*Orientation, name=PART-23-1-DATUM-CSYS-23-A
-0.555570233019602, -0.831469612302545,           0.,           0.,           0.,           1.
1, 0.
*Orientation, name=PART-25-1-DATUM-CSYS-25-C
-0.831469612302545, 0.555570233019602,           0., 0.555570233019602, 0.831469612302545,           0.
1, 0.
*Orientation, name=PART-24-1-DATUM-CSYS-24-A
-0.831469612302545, 0.555570233019602,           0.,           0.,           0.,           1.
1, 0.
*Orientation, name=PART-30-1-DATUM-CSYS-30-B
-0.555570233019602, 0.831469612302545,           0., -0.831469612302545, -0.555570233019602,           0.
1, 0.
*Orientation, name=PART-26-1-DATUM-CSYS-26-A
-0.555570233019602, 0.831469612302545,           0.,           0.,           0.,           1.
1, 0.
*Orientation, name=PART-30-1-DATUM-CSYS-30-A
-0.831469612302545, -0.555570233019602,           0., -0.555570233019602, 0.831469612302545,           0.
1, 0.
*Orientation, name=PART-27-1-DATUM-CSYS-27-A
-0.831469612302546, -0.555570233019602,           0.,           0.,           0.,           1.
1, 0.
*Orientation, name=PART-30-1-DATUM-CSYS-30-D
0.555570233019602, -0.831469612302545,           0., -0.831469612302545, -0.555570233019602,           0.
1, 0.
*Orientation, name=PART-28-1-DATUM-CSYS-28-A
0.555570233019602, -0.831469612302545,           0.,           0.,           0.,           1.
1, 0.
*Orientation, name=PART-30-1-DATUM-CSYS-30-C
0.831469612302545, 0.555570233019602,           0., -0.555570233019602, 0.831469612302545,           0.
1, 0.
*Orientation, name=PART-29-1-DATUM-CSYS-29-A
0.831469612302545, 0.555570233019602,           0.,           0.,           0.,           1.
1, 0.
*End Assembly
*Connector Behavior, name=ConnProp-1_CONNSECT-1
*Connector Elasticity, component=4
 0.75,
*Connector Behavior, name=ConnProp-2_CONNSECT-1
*Connector Elasticity, component=4
 0.75,
*Connector Behavior, name=ConnProp-3_CONNSECT-1
*Connector Elasticity, component=4
 0.75,
*Connector Behavior, name=ConnProp-4_CONNSECT-1
*Connector Elasticity, component=4
 0.75,
*Connector Behavior, name=ConnProp-5_CONNSECT-1
*Connector Elasticity, component=4
 0.75,
*Connector Behavior, name=ConnProp-6_CONNSECT-1
*Connector Elasticity, component=4
 0.75,
*Connector Behavior, name=ConnProp-7_CONNSECT-1
*Connector Elasticity, component=4
 0.75,
*Connector Behavior, name=ConnProp-8_CONNSECT-1
*Connector Elasticity, component=4
 0.75,
*Connector Behavior, name=ConnProp-9_CONNSECT-1
*Connector Elasticity, component=4
 0.75,
*Connector Behavior, name=ConnProp-10_CONNSECT-1
*Connector Elasticity, component=4
 0.75,
*Connector Behavior, name=ConnProp-11_CONNSECT-1
*Connector Elasticity, component=4
 0.75,
*Connector Behavior, name=ConnProp-12_CONNSECT-1
*Connector Elasticity, component=4
 0.75,
*Connector Behavior, name=ConnProp-13_CONNSECT-1
*Connector Elasticity, component=4
 0.75,
*Connector Behavior, name=ConnProp-14_CONNSECT-1
*Connector Elasticity, component=4
 0.75,
*Connector Behavior, name=ConnProp-15_CONNSECT-1
*Connector Elasticity, component=4
 0.75,
*Connector Behavior, name=ConnProp-16_CONNSECT-1
*Connector Elasticity, component=4
 0.75,
*Connector Behavior, name=ConnProp-17_CONNSECT-1
*Connector Elasticity, component=4
 0.75,
*Connector Behavior, name=ConnProp-18_CONNSECT-1
*Connector Elasticity, component=4
 0.75,
*Connector Behavior, name=ConnProp-19_CONNSECT-1
*Connector Elasticity, component=4
 0.75,
*Connector Behavior, name=ConnProp-20_CONNSECT-1
*Connector Elasticity, component=4
 0.75,
** ... 300 like lines cut
** 
** MATERIALS
** 
*Material, name=MATERIAL-1
*Density
2000.,
*Elastic
 4e+08, 0.3
** ----------------------------------------------------------------
** 
** STEP: Step-1
** 
*Step, name=Step-1, nlgeom=YES
*Dynamic, Explicit
, 1.
*Bulk Viscosity
0.06, 1.2
** 
** BOUNDARY CONDITIONS
** 
** Name: Disp-BC-1 Type: Symmetry/Antisymmetry/Encastre
*Boundary
SET-121, ZSYMM
** Name: Disp-BC-2 Type: Symmetry/Antisymmetry/Encastre
*Boundary
SET-122, PINNED
** 
** LOADS
** 
** Name: CFORCE-1   Type: Concentrated force
*Cload
SET-123, 2, 1.
** 
** OUTPUT REQUESTS
** 
*Restart, write, number interval=1, time marks=NO
** 
** FIELD OUTPUT: F-Output-1
** 
*Output, field, variable=PRESELECT
** 
** HISTORY OUTPUT: H-Output-1
** 
*Output, history, variable=PRESELECT
*End Step
